* NGSPICE file created from busarb_2_2.ext - technology: sky130A

* Black-box entry subcircuit for sky130_fd_sc_hd__fill_2 abstract view
.subckt sky130_fd_sc_hd__fill_2 VGND VNB VPB VPWR
.ends

* Black-box entry subcircuit for sky130_fd_sc_hd__nand2_1 abstract view
.subckt sky130_fd_sc_hd__nand2_1 A B VGND VNB VPB VPWR Y
.ends

* Black-box entry subcircuit for sky130_ef_sc_hd__decap_12 abstract view
.subckt sky130_ef_sc_hd__decap_12 VGND VNB VPB VPWR
.ends

* Black-box entry subcircuit for sky130_fd_sc_hd__decap_6 abstract view
.subckt sky130_fd_sc_hd__decap_6 VGND VNB VPB VPWR
.ends

* Black-box entry subcircuit for sky130_fd_sc_hd__fill_1 abstract view
.subckt sky130_fd_sc_hd__fill_1 VGND VNB VPB VPWR
.ends

* Black-box entry subcircuit for sky130_fd_sc_hd__diode_2 abstract view
.subckt sky130_fd_sc_hd__diode_2 DIODE VGND VNB VPB VPWR
.ends

* Black-box entry subcircuit for sky130_fd_sc_hd__decap_4 abstract view
.subckt sky130_fd_sc_hd__decap_4 VGND VNB VPB VPWR
.ends

* Black-box entry subcircuit for sky130_fd_sc_hd__tapvpwrvgnd_1 abstract view
.subckt sky130_fd_sc_hd__tapvpwrvgnd_1 VGND VPWR
.ends

* Black-box entry subcircuit for sky130_fd_sc_hd__o22ai_2 abstract view
.subckt sky130_fd_sc_hd__o22ai_2 A1 A2 B1 B2 VGND VNB VPB VPWR Y
.ends

* Black-box entry subcircuit for sky130_fd_sc_hd__nand3_1 abstract view
.subckt sky130_fd_sc_hd__nand3_1 A B C VGND VNB VPB VPWR Y
.ends

* Black-box entry subcircuit for sky130_fd_sc_hd__inv_2 abstract view
.subckt sky130_fd_sc_hd__inv_2 A VGND VNB VPB VPWR Y
.ends

* Black-box entry subcircuit for sky130_fd_sc_hd__buf_12 abstract view
.subckt sky130_fd_sc_hd__buf_12 A VGND VNB VPB VPWR X
.ends

* Black-box entry subcircuit for sky130_fd_sc_hd__nor2_2 abstract view
.subckt sky130_fd_sc_hd__nor2_2 A B VGND VNB VPB VPWR Y
.ends

* Black-box entry subcircuit for sky130_fd_sc_hd__o22ai_4 abstract view
.subckt sky130_fd_sc_hd__o22ai_4 A1 A2 B1 B2 VGND VNB VPB VPWR Y
.ends

* Black-box entry subcircuit for sky130_fd_sc_hd__nor2_1 abstract view
.subckt sky130_fd_sc_hd__nor2_1 A B VGND VNB VPB VPWR Y
.ends

* Black-box entry subcircuit for sky130_fd_sc_hd__and2_1 abstract view
.subckt sky130_fd_sc_hd__and2_1 A B VGND VNB VPB VPWR X
.ends

* Black-box entry subcircuit for sky130_fd_sc_hd__clkbuf_16 abstract view
.subckt sky130_fd_sc_hd__clkbuf_16 A VGND VNB VPB VPWR X
.ends

* Black-box entry subcircuit for sky130_fd_sc_hd__buf_8 abstract view
.subckt sky130_fd_sc_hd__buf_8 A VGND VNB VPB VPWR X
.ends

* Black-box entry subcircuit for sky130_fd_sc_hd__decap_8 abstract view
.subckt sky130_fd_sc_hd__decap_8 VGND VNB VPB VPWR
.ends

* Black-box entry subcircuit for sky130_fd_sc_hd__a22oi_2 abstract view
.subckt sky130_fd_sc_hd__a22oi_2 A1 A2 B1 B2 VGND VNB VPB VPWR Y
.ends

* Black-box entry subcircuit for sky130_fd_sc_hd__a21o_1 abstract view
.subckt sky130_fd_sc_hd__a21o_1 A1 A2 B1 VGND VNB VPB VPWR X
.ends

* Black-box entry subcircuit for sky130_fd_sc_hd__buf_1 abstract view
.subckt sky130_fd_sc_hd__buf_1 A VGND VNB VPB VPWR X
.ends

* Black-box entry subcircuit for sky130_fd_sc_hd__a2bb2o_1 abstract view
.subckt sky130_fd_sc_hd__a2bb2o_1 A1_N A2_N B1 B2 VGND VNB VPB VPWR X
.ends

* Black-box entry subcircuit for sky130_fd_sc_hd__decap_3 abstract view
.subckt sky130_fd_sc_hd__decap_3 VGND VNB VPB VPWR
.ends

* Black-box entry subcircuit for sky130_fd_sc_hd__nor2_8 abstract view
.subckt sky130_fd_sc_hd__nor2_8 A B VGND VNB VPB VPWR Y
.ends

* Black-box entry subcircuit for sky130_fd_sc_hd__buf_4 abstract view
.subckt sky130_fd_sc_hd__buf_4 A VGND VNB VPB VPWR X
.ends

* Black-box entry subcircuit for sky130_fd_sc_hd__dlygate4sd3_1 abstract view
.subckt sky130_fd_sc_hd__dlygate4sd3_1 A VGND VNB VPB VPWR X
.ends

* Black-box entry subcircuit for sky130_fd_sc_hd__clkbuf_1 abstract view
.subckt sky130_fd_sc_hd__clkbuf_1 A VGND VNB VPB VPWR X
.ends

* Black-box entry subcircuit for sky130_fd_sc_hd__dlymetal6s2s_1 abstract view
.subckt sky130_fd_sc_hd__dlymetal6s2s_1 A VGND VNB VPB VPWR X
.ends

* Black-box entry subcircuit for sky130_fd_sc_hd__o21ai_2 abstract view
.subckt sky130_fd_sc_hd__o21ai_2 A1 A2 B1 VGND VNB VPB VPWR Y
.ends

* Black-box entry subcircuit for sky130_fd_sc_hd__o21bai_1 abstract view
.subckt sky130_fd_sc_hd__o21bai_1 A1 A2 B1_N VGND VNB VPB VPWR Y
.ends

* Black-box entry subcircuit for sky130_fd_sc_hd__clkinv_4 abstract view
.subckt sky130_fd_sc_hd__clkinv_4 A VGND VNB VPB VPWR Y
.ends

* Black-box entry subcircuit for sky130_fd_sc_hd__nor2_4 abstract view
.subckt sky130_fd_sc_hd__nor2_4 A B VGND VNB VPB VPWR Y
.ends

* Black-box entry subcircuit for sky130_fd_sc_hd__clkbuf_2 abstract view
.subckt sky130_fd_sc_hd__clkbuf_2 A VGND VNB VPB VPWR X
.ends

* Black-box entry subcircuit for sky130_fd_sc_hd__a22o_1 abstract view
.subckt sky130_fd_sc_hd__a22o_1 A1 A2 B1 B2 VGND VNB VPB VPWR X
.ends

* Black-box entry subcircuit for sky130_fd_sc_hd__nand2_4 abstract view
.subckt sky130_fd_sc_hd__nand2_4 A B VGND VNB VPB VPWR Y
.ends

* Black-box entry subcircuit for sky130_fd_sc_hd__nand2_2 abstract view
.subckt sky130_fd_sc_hd__nand2_2 A B VGND VNB VPB VPWR Y
.ends

* Black-box entry subcircuit for sky130_fd_sc_hd__o21ai_1 abstract view
.subckt sky130_fd_sc_hd__o21ai_1 A1 A2 B1 VGND VNB VPB VPWR Y
.ends

* Black-box entry subcircuit for sky130_fd_sc_hd__clkbuf_8 abstract view
.subckt sky130_fd_sc_hd__clkbuf_8 A VGND VNB VPB VPWR X
.ends

* Black-box entry subcircuit for sky130_fd_sc_hd__a21oi_1 abstract view
.subckt sky130_fd_sc_hd__a21oi_1 A1 A2 B1 VGND VNB VPB VPWR Y
.ends

* Black-box entry subcircuit for sky130_fd_sc_hd__a22oi_4 abstract view
.subckt sky130_fd_sc_hd__a22oi_4 A1 A2 B1 B2 VGND VNB VPB VPWR Y
.ends

* Black-box entry subcircuit for sky130_fd_sc_hd__or3_1 abstract view
.subckt sky130_fd_sc_hd__or3_1 A B C VGND VNB VPB VPWR X
.ends

* Black-box entry subcircuit for sky130_fd_sc_hd__clkinv_8 abstract view
.subckt sky130_fd_sc_hd__clkinv_8 A VGND VNB VPB VPWR Y
.ends

* Black-box entry subcircuit for sky130_fd_sc_hd__nand3_2 abstract view
.subckt sky130_fd_sc_hd__nand3_2 A B C VGND VNB VPB VPWR Y
.ends

* Black-box entry subcircuit for sky130_fd_sc_hd__o21ai_4 abstract view
.subckt sky130_fd_sc_hd__o21ai_4 A1 A2 B1 VGND VNB VPB VPWR Y
.ends

* Black-box entry subcircuit for sky130_fd_sc_hd__nand2_8 abstract view
.subckt sky130_fd_sc_hd__nand2_8 A B VGND VNB VPB VPWR Y
.ends

* Black-box entry subcircuit for sky130_fd_sc_hd__o221ai_4 abstract view
.subckt sky130_fd_sc_hd__o221ai_4 A1 A2 B1 B2 C1 VGND VNB VPB VPWR Y
.ends

* Black-box entry subcircuit for sky130_fd_sc_hd__buf_6 abstract view
.subckt sky130_fd_sc_hd__buf_6 A VGND VNB VPB VPWR X
.ends

* Black-box entry subcircuit for sky130_fd_sc_hd__a221oi_4 abstract view
.subckt sky130_fd_sc_hd__a221oi_4 A1 A2 B1 B2 C1 VGND VNB VPB VPWR Y
.ends

* Black-box entry subcircuit for sky130_fd_sc_hd__a31o_1 abstract view
.subckt sky130_fd_sc_hd__a31o_1 A1 A2 A3 B1 VGND VNB VPB VPWR X
.ends

* Black-box entry subcircuit for sky130_fd_sc_hd__o2bb2ai_2 abstract view
.subckt sky130_fd_sc_hd__o2bb2ai_2 A1_N A2_N B1 B2 VGND VNB VPB VPWR Y
.ends

* Black-box entry subcircuit for sky130_fd_sc_hd__nand3_4 abstract view
.subckt sky130_fd_sc_hd__nand3_4 A B C VGND VNB VPB VPWR Y
.ends

* Black-box entry subcircuit for sky130_fd_sc_hd__a221oi_2 abstract view
.subckt sky130_fd_sc_hd__a221oi_2 A1 A2 B1 B2 C1 VGND VNB VPB VPWR Y
.ends

* Black-box entry subcircuit for sky130_fd_sc_hd__dfrtp_1 abstract view
.subckt sky130_fd_sc_hd__dfrtp_1 CLK D RESET_B VGND VNB VPB VPWR Q
.ends

* Black-box entry subcircuit for sky130_fd_sc_hd__buf_2 abstract view
.subckt sky130_fd_sc_hd__buf_2 A VGND VNB VPB VPWR X
.ends

* Black-box entry subcircuit for sky130_fd_sc_hd__and2_2 abstract view
.subckt sky130_fd_sc_hd__and2_2 A B VGND VNB VPB VPWR X
.ends

* Black-box entry subcircuit for sky130_fd_sc_hd__a41o_1 abstract view
.subckt sky130_fd_sc_hd__a41o_1 A1 A2 A3 A4 B1 VGND VNB VPB VPWR X
.ends

* Black-box entry subcircuit for sky130_fd_sc_hd__o211ai_1 abstract view
.subckt sky130_fd_sc_hd__o211ai_1 A1 A2 B1 C1 VGND VNB VPB VPWR Y
.ends

* Black-box entry subcircuit for sky130_fd_sc_hd__a21o_2 abstract view
.subckt sky130_fd_sc_hd__a21o_2 A1 A2 B1 VGND VNB VPB VPWR X
.ends

* Black-box entry subcircuit for sky130_fd_sc_hd__a31o_4 abstract view
.subckt sky130_fd_sc_hd__a31o_4 A1 A2 A3 B1 VGND VNB VPB VPWR X
.ends

* Black-box entry subcircuit for sky130_fd_sc_hd__dfrtp_2 abstract view
.subckt sky130_fd_sc_hd__dfrtp_2 CLK D RESET_B VGND VNB VPB VPWR Q
.ends

* Black-box entry subcircuit for sky130_fd_sc_hd__a21bo_1 abstract view
.subckt sky130_fd_sc_hd__a21bo_1 A1 A2 B1_N VGND VNB VPB VPWR X
.ends

* Black-box entry subcircuit for sky130_fd_sc_hd__dfrtp_4 abstract view
.subckt sky130_fd_sc_hd__dfrtp_4 CLK D RESET_B VGND VNB VPB VPWR Q
.ends

* Black-box entry subcircuit for sky130_fd_sc_hd__nand3b_2 abstract view
.subckt sky130_fd_sc_hd__nand3b_2 A_N B C VGND VNB VPB VPWR Y
.ends

* Black-box entry subcircuit for sky130_fd_sc_hd__a22oi_1 abstract view
.subckt sky130_fd_sc_hd__a22oi_1 A1 A2 B1 B2 VGND VNB VPB VPWR Y
.ends

* Black-box entry subcircuit for sky130_fd_sc_hd__nand3b_1 abstract view
.subckt sky130_fd_sc_hd__nand3b_1 A_N B C VGND VNB VPB VPWR Y
.ends

* Black-box entry subcircuit for sky130_fd_sc_hd__clkbuf_4 abstract view
.subckt sky130_fd_sc_hd__clkbuf_4 A VGND VNB VPB VPWR X
.ends

* Black-box entry subcircuit for sky130_fd_sc_hd__inv_4 abstract view
.subckt sky130_fd_sc_hd__inv_4 A VGND VNB VPB VPWR Y
.ends

* Black-box entry subcircuit for sky130_fd_sc_hd__a21oi_4 abstract view
.subckt sky130_fd_sc_hd__a21oi_4 A1 A2 B1 VGND VNB VPB VPWR Y
.ends

* Black-box entry subcircuit for sky130_fd_sc_hd__and2b_1 abstract view
.subckt sky130_fd_sc_hd__and2b_1 A_N B VGND VNB VPB VPWR X
.ends

* Black-box entry subcircuit for sky130_fd_sc_hd__inv_6 abstract view
.subckt sky130_fd_sc_hd__inv_6 A VGND VNB VPB VPWR Y
.ends

* Black-box entry subcircuit for sky130_fd_sc_hd__nor3_1 abstract view
.subckt sky130_fd_sc_hd__nor3_1 A B C VGND VNB VPB VPWR Y
.ends

* Black-box entry subcircuit for sky130_fd_sc_hd__mux2_1 abstract view
.subckt sky130_fd_sc_hd__mux2_1 A0 A1 S VGND VNB VPB VPWR X
.ends

* Black-box entry subcircuit for sky130_fd_sc_hd__a31o_2 abstract view
.subckt sky130_fd_sc_hd__a31o_2 A1 A2 A3 B1 VGND VNB VPB VPWR X
.ends

* Black-box entry subcircuit for sky130_fd_sc_hd__a22o_2 abstract view
.subckt sky130_fd_sc_hd__a22o_2 A1 A2 B1 B2 VGND VNB VPB VPWR X
.ends

* Black-box entry subcircuit for sky130_fd_sc_hd__or2_1 abstract view
.subckt sky130_fd_sc_hd__or2_1 A B VGND VNB VPB VPWR X
.ends

* Black-box entry subcircuit for sky130_fd_sc_hd__nand2b_2 abstract view
.subckt sky130_fd_sc_hd__nand2b_2 A_N B VGND VNB VPB VPWR Y
.ends

* Black-box entry subcircuit for sky130_fd_sc_hd__and3_1 abstract view
.subckt sky130_fd_sc_hd__and3_1 A B C VGND VNB VPB VPWR X
.ends

* Black-box entry subcircuit for sky130_fd_sc_hd__o21a_1 abstract view
.subckt sky130_fd_sc_hd__o21a_1 A1 A2 B1 VGND VNB VPB VPWR X
.ends

.subckt busarb_2_2 clk_i mports_i[0] mports_i[100] mports_i[101] mports_i[102] mports_i[103]
+ mports_i[104] mports_i[105] mports_i[106] mports_i[107] mports_i[108] mports_i[109]
+ mports_i[10] mports_i[110] mports_i[111] mports_i[112] mports_i[113] mports_i[114]
+ mports_i[115] mports_i[116] mports_i[117] mports_i[118] mports_i[119] mports_i[11]
+ mports_i[120] mports_i[121] mports_i[122] mports_i[123] mports_i[124] mports_i[125]
+ mports_i[126] mports_i[127] mports_i[128] mports_i[129] mports_i[12] mports_i[130]
+ mports_i[131] mports_i[132] mports_i[133] mports_i[134] mports_i[135] mports_i[136]
+ mports_i[137] mports_i[138] mports_i[139] mports_i[13] mports_i[140] mports_i[141]
+ mports_i[142] mports_i[143] mports_i[144] mports_i[145] mports_i[146] mports_i[147]
+ mports_i[148] mports_i[149] mports_i[14] mports_i[150] mports_i[151] mports_i[152]
+ mports_i[153] mports_i[154] mports_i[155] mports_i[156] mports_i[157] mports_i[158]
+ mports_i[159] mports_i[15] mports_i[160] mports_i[161] mports_i[162] mports_i[163]
+ mports_i[164] mports_i[165] mports_i[166] mports_i[167] mports_i[168] mports_i[169]
+ mports_i[16] mports_i[170] mports_i[171] mports_i[172] mports_i[173] mports_i[174]
+ mports_i[175] mports_i[176] mports_i[177] mports_i[178] mports_i[179] mports_i[17]
+ mports_i[180] mports_i[181] mports_i[182] mports_i[183] mports_i[184] mports_i[185]
+ mports_i[186] mports_i[187] mports_i[188] mports_i[189] mports_i[18] mports_i[190]
+ mports_i[191] mports_i[192] mports_i[193] mports_i[194] mports_i[195] mports_i[196]
+ mports_i[197] mports_i[198] mports_i[199] mports_i[19] mports_i[1] mports_i[200]
+ mports_i[201] mports_i[202] mports_i[203] mports_i[204] mports_i[205] mports_i[206]
+ mports_i[207] mports_i[208] mports_i[209] mports_i[20] mports_i[210] mports_i[211]
+ mports_i[212] mports_i[213] mports_i[214] mports_i[215] mports_i[216] mports_i[217]
+ mports_i[218] mports_i[219] mports_i[21] mports_i[220] mports_i[221] mports_i[222]
+ mports_i[223] mports_i[224] mports_i[225] mports_i[226] mports_i[227] mports_i[22]
+ mports_i[23] mports_i[24] mports_i[25] mports_i[26] mports_i[27] mports_i[28] mports_i[29]
+ mports_i[2] mports_i[30] mports_i[31] mports_i[32] mports_i[33] mports_i[34] mports_i[35]
+ mports_i[36] mports_i[37] mports_i[38] mports_i[39] mports_i[3] mports_i[40] mports_i[41]
+ mports_i[42] mports_i[43] mports_i[44] mports_i[45] mports_i[46] mports_i[47] mports_i[48]
+ mports_i[49] mports_i[4] mports_i[50] mports_i[51] mports_i[52] mports_i[53] mports_i[54]
+ mports_i[55] mports_i[56] mports_i[57] mports_i[58] mports_i[59] mports_i[5] mports_i[60]
+ mports_i[61] mports_i[62] mports_i[63] mports_i[64] mports_i[65] mports_i[66] mports_i[67]
+ mports_i[68] mports_i[69] mports_i[6] mports_i[70] mports_i[71] mports_i[72] mports_i[73]
+ mports_i[74] mports_i[75] mports_i[76] mports_i[77] mports_i[78] mports_i[79] mports_i[7]
+ mports_i[80] mports_i[81] mports_i[82] mports_i[83] mports_i[84] mports_i[85] mports_i[86]
+ mports_i[87] mports_i[88] mports_i[89] mports_i[8] mports_i[90] mports_i[91] mports_i[92]
+ mports_i[93] mports_i[94] mports_i[95] mports_i[96] mports_i[97] mports_i[98] mports_i[99]
+ mports_i[9] mports_o[0] mports_o[100] mports_o[101] mports_o[102] mports_o[103]
+ mports_o[104] mports_o[105] mports_o[106] mports_o[107] mports_o[108] mports_o[109]
+ mports_o[10] mports_o[110] mports_o[111] mports_o[112] mports_o[113] mports_o[114]
+ mports_o[115] mports_o[116] mports_o[117] mports_o[118] mports_o[119] mports_o[11]
+ mports_o[120] mports_o[121] mports_o[122] mports_o[123] mports_o[124] mports_o[125]
+ mports_o[126] mports_o[127] mports_o[128] mports_o[129] mports_o[12] mports_o[130]
+ mports_o[131] mports_o[132] mports_o[133] mports_o[134] mports_o[135] mports_o[13]
+ mports_o[14] mports_o[15] mports_o[16] mports_o[17] mports_o[18] mports_o[19] mports_o[1]
+ mports_o[20] mports_o[21] mports_o[22] mports_o[23] mports_o[24] mports_o[25] mports_o[26]
+ mports_o[27] mports_o[28] mports_o[29] mports_o[2] mports_o[30] mports_o[31] mports_o[32]
+ mports_o[33] mports_o[34] mports_o[35] mports_o[36] mports_o[37] mports_o[38] mports_o[39]
+ mports_o[3] mports_o[40] mports_o[41] mports_o[42] mports_o[43] mports_o[44] mports_o[45]
+ mports_o[46] mports_o[47] mports_o[48] mports_o[49] mports_o[4] mports_o[50] mports_o[51]
+ mports_o[52] mports_o[53] mports_o[54] mports_o[55] mports_o[56] mports_o[57] mports_o[58]
+ mports_o[59] mports_o[5] mports_o[60] mports_o[61] mports_o[62] mports_o[63] mports_o[64]
+ mports_o[65] mports_o[66] mports_o[67] mports_o[68] mports_o[69] mports_o[6] mports_o[70]
+ mports_o[71] mports_o[72] mports_o[73] mports_o[74] mports_o[75] mports_o[76] mports_o[77]
+ mports_o[78] mports_o[79] mports_o[7] mports_o[80] mports_o[81] mports_o[82] mports_o[83]
+ mports_o[84] mports_o[85] mports_o[86] mports_o[87] mports_o[88] mports_o[89] mports_o[8]
+ mports_o[90] mports_o[91] mports_o[92] mports_o[93] mports_o[94] mports_o[95] mports_o[96]
+ mports_o[97] mports_o[98] mports_o[99] mports_o[9] nrst_i sports_i[0] sports_i[100]
+ sports_i[101] sports_i[102] sports_i[103] sports_i[104] sports_i[105] sports_i[106]
+ sports_i[107] sports_i[108] sports_i[109] sports_i[10] sports_i[110] sports_i[111]
+ sports_i[112] sports_i[113] sports_i[114] sports_i[115] sports_i[116] sports_i[117]
+ sports_i[118] sports_i[119] sports_i[11] sports_i[120] sports_i[121] sports_i[122]
+ sports_i[123] sports_i[124] sports_i[125] sports_i[126] sports_i[127] sports_i[128]
+ sports_i[129] sports_i[12] sports_i[130] sports_i[131] sports_i[132] sports_i[133]
+ sports_i[134] sports_i[135] sports_i[13] sports_i[14] sports_i[15] sports_i[16]
+ sports_i[17] sports_i[18] sports_i[19] sports_i[1] sports_i[20] sports_i[21] sports_i[22]
+ sports_i[23] sports_i[24] sports_i[25] sports_i[26] sports_i[27] sports_i[28] sports_i[29]
+ sports_i[2] sports_i[30] sports_i[31] sports_i[32] sports_i[33] sports_i[34] sports_i[35]
+ sports_i[36] sports_i[37] sports_i[38] sports_i[39] sports_i[3] sports_i[40] sports_i[41]
+ sports_i[42] sports_i[43] sports_i[44] sports_i[45] sports_i[46] sports_i[47] sports_i[48]
+ sports_i[49] sports_i[4] sports_i[50] sports_i[51] sports_i[52] sports_i[53] sports_i[54]
+ sports_i[55] sports_i[56] sports_i[57] sports_i[58] sports_i[59] sports_i[5] sports_i[60]
+ sports_i[61] sports_i[62] sports_i[63] sports_i[64] sports_i[65] sports_i[66] sports_i[67]
+ sports_i[68] sports_i[69] sports_i[6] sports_i[70] sports_i[71] sports_i[72] sports_i[73]
+ sports_i[74] sports_i[75] sports_i[76] sports_i[77] sports_i[78] sports_i[79] sports_i[7]
+ sports_i[80] sports_i[81] sports_i[82] sports_i[83] sports_i[84] sports_i[85] sports_i[86]
+ sports_i[87] sports_i[88] sports_i[89] sports_i[8] sports_i[90] sports_i[91] sports_i[92]
+ sports_i[93] sports_i[94] sports_i[95] sports_i[96] sports_i[97] sports_i[98] sports_i[99]
+ sports_i[9] sports_o[0] sports_o[100] sports_o[101] sports_o[102] sports_o[103]
+ sports_o[104] sports_o[105] sports_o[106] sports_o[107] sports_o[108] sports_o[109]
+ sports_o[10] sports_o[110] sports_o[111] sports_o[112] sports_o[113] sports_o[114]
+ sports_o[115] sports_o[116] sports_o[117] sports_o[118] sports_o[119] sports_o[11]
+ sports_o[120] sports_o[121] sports_o[122] sports_o[123] sports_o[124] sports_o[125]
+ sports_o[126] sports_o[127] sports_o[128] sports_o[129] sports_o[12] sports_o[130]
+ sports_o[131] sports_o[132] sports_o[133] sports_o[134] sports_o[135] sports_o[136]
+ sports_o[137] sports_o[138] sports_o[139] sports_o[13] sports_o[140] sports_o[141]
+ sports_o[142] sports_o[143] sports_o[144] sports_o[145] sports_o[146] sports_o[147]
+ sports_o[148] sports_o[149] sports_o[14] sports_o[150] sports_o[151] sports_o[152]
+ sports_o[153] sports_o[154] sports_o[155] sports_o[156] sports_o[157] sports_o[158]
+ sports_o[159] sports_o[15] sports_o[160] sports_o[161] sports_o[162] sports_o[163]
+ sports_o[164] sports_o[165] sports_o[166] sports_o[167] sports_o[168] sports_o[169]
+ sports_o[16] sports_o[170] sports_o[171] sports_o[172] sports_o[173] sports_o[174]
+ sports_o[175] sports_o[176] sports_o[177] sports_o[178] sports_o[179] sports_o[17]
+ sports_o[180] sports_o[181] sports_o[182] sports_o[183] sports_o[184] sports_o[185]
+ sports_o[186] sports_o[187] sports_o[188] sports_o[189] sports_o[18] sports_o[190]
+ sports_o[191] sports_o[192] sports_o[193] sports_o[194] sports_o[195] sports_o[196]
+ sports_o[197] sports_o[198] sports_o[199] sports_o[19] sports_o[1] sports_o[200]
+ sports_o[201] sports_o[202] sports_o[203] sports_o[204] sports_o[205] sports_o[206]
+ sports_o[207] sports_o[208] sports_o[209] sports_o[20] sports_o[210] sports_o[211]
+ sports_o[212] sports_o[213] sports_o[214] sports_o[215] sports_o[216] sports_o[217]
+ sports_o[218] sports_o[219] sports_o[21] sports_o[220] sports_o[221] sports_o[222]
+ sports_o[223] sports_o[224] sports_o[225] sports_o[226] sports_o[227] sports_o[22]
+ sports_o[23] sports_o[24] sports_o[25] sports_o[26] sports_o[27] sports_o[28] sports_o[29]
+ sports_o[2] sports_o[30] sports_o[31] sports_o[32] sports_o[33] sports_o[34] sports_o[35]
+ sports_o[36] sports_o[37] sports_o[38] sports_o[39] sports_o[3] sports_o[40] sports_o[41]
+ sports_o[42] sports_o[43] sports_o[44] sports_o[45] sports_o[46] sports_o[47] sports_o[48]
+ sports_o[49] sports_o[4] sports_o[50] sports_o[51] sports_o[52] sports_o[53] sports_o[54]
+ sports_o[55] sports_o[56] sports_o[57] sports_o[58] sports_o[59] sports_o[5] sports_o[60]
+ sports_o[61] sports_o[62] sports_o[63] sports_o[64] sports_o[65] sports_o[66] sports_o[67]
+ sports_o[68] sports_o[69] sports_o[6] sports_o[70] sports_o[71] sports_o[72] sports_o[73]
+ sports_o[74] sports_o[75] sports_o[76] sports_o[77] sports_o[78] sports_o[79] sports_o[7]
+ sports_o[80] sports_o[81] sports_o[82] sports_o[83] sports_o[84] sports_o[85] sports_o[86]
+ sports_o[87] sports_o[88] sports_o[89] sports_o[8] sports_o[90] sports_o[91] sports_o[92]
+ sports_o[93] sports_o[94] sports_o[95] sports_o[96] sports_o[97] sports_o[98] sports_o[99]
+ sports_o[9] vccd1 vssd1
XFILLER_0_118_51 vssd1 vssd1 vccd1 vccd1 sky130_fd_sc_hd__fill_2
X_2106_ _2494_/A _2652_/B vssd1 vssd1 vccd1 vccd1 _2107_/B sky130_fd_sc_hd__nand2_1
XFILLER_0_27_93 vssd1 vssd1 vccd1 vccd1 sky130_ef_sc_hd__decap_12
XFILLER_0_89_461 vssd1 vssd1 vccd1 vccd1 sky130_ef_sc_hd__decap_12
X_2037_ _2627_/B _2119_/B vssd1 vssd1 vccd1 vccd1 _2038_/B sky130_fd_sc_hd__nand2_1
XFILLER_0_18_701 vssd1 vssd1 vccd1 vccd1 sky130_ef_sc_hd__decap_12
XFILLER_0_92_637 vssd1 vssd1 vccd1 vccd1 sky130_fd_sc_hd__decap_6
XFILLER_0_91_125 vssd1 vssd1 vccd1 vccd1 sky130_fd_sc_hd__fill_2
XFILLER_0_57_391 vssd1 vssd1 vccd1 vccd1 sky130_fd_sc_hd__fill_1
XFILLER_0_91_169 vssd1 vssd1 vccd1 vccd1 sky130_ef_sc_hd__decap_12
XFILLER_0_45_553 vssd1 vssd1 vccd1 vccd1 sky130_fd_sc_hd__decap_6
XFILLER_0_60_501 vssd1 vssd1 vccd1 vccd1 sky130_ef_sc_hd__decap_12
XANTENNA__1757__A2 _2602_/B vssd1 vssd1 vccd1 vccd1 sky130_fd_sc_hd__diode_2
XFILLER_0_45_597 vssd1 vssd1 vccd1 vccd1 sky130_ef_sc_hd__decap_12
XFILLER_0_115_485 vssd1 vssd1 vccd1 vccd1 sky130_fd_sc_hd__fill_2
XFILLER_0_115_463 vssd1 vssd1 vccd1 vccd1 sky130_fd_sc_hd__decap_4
XFILLER_0_60_545 vssd1 vssd1 vccd1 vccd1 sky130_ef_sc_hd__decap_12
XFILLER_0_60_589 vssd1 vssd1 vccd1 vccd1 sky130_ef_sc_hd__decap_12
XFILLER_0_13_461 vssd1 vssd1 vccd1 vccd1 sky130_ef_sc_hd__decap_12
XFILLER_0_7_81 vssd1 vssd1 vccd1 vccd1 sky130_ef_sc_hd__decap_12
XFILLER_0_99_225 vssd1 vssd1 vccd1 vccd1 sky130_ef_sc_hd__decap_12
XANTENNA__2485__A3 _2320_/A vssd1 vssd1 vccd1 vccd1 sky130_fd_sc_hd__diode_2
XTAP_1800 vssd1 vccd1 sky130_fd_sc_hd__tapvpwrvgnd_1
XFILLER_0_68_601 vssd1 vssd1 vccd1 vccd1 sky130_ef_sc_hd__decap_12
XANTENNA__2365__A _2542_/A vssd1 vssd1 vccd1 vccd1 sky130_fd_sc_hd__diode_2
XTAP_1822 vssd1 vccd1 sky130_fd_sc_hd__tapvpwrvgnd_1
XTAP_1811 vssd1 vccd1 sky130_fd_sc_hd__tapvpwrvgnd_1
XFILLER_0_68_645 vssd1 vssd1 vccd1 vccd1 sky130_ef_sc_hd__decap_12
XANTENNA__2084__B _2084_/B vssd1 vssd1 vccd1 vccd1 sky130_fd_sc_hd__diode_2
XFILLER_0_83_615 vssd1 vssd1 vccd1 vccd1 sky130_fd_sc_hd__fill_1
XFILLER_0_67_177 vssd1 vssd1 vccd1 vccd1 sky130_fd_sc_hd__fill_2
XFILLER_0_67_166 vssd1 vssd1 vccd1 vccd1 sky130_fd_sc_hd__fill_2
XFILLER_0_55_317 vssd1 vssd1 vccd1 vccd1 sky130_ef_sc_hd__decap_12
XFILLER_0_95_497 vssd1 vssd1 vccd1 vccd1 sky130_fd_sc_hd__decap_6
XFILLER_0_82_125 vssd1 vssd1 vccd1 vccd1 sky130_fd_sc_hd__fill_1
XFILLER_0_82_158 vssd1 vssd1 vccd1 vccd1 sky130_fd_sc_hd__decap_4
XFILLER_0_70_309 vssd1 vssd1 vccd1 vccd1 sky130_ef_sc_hd__decap_12
XFILLER_0_36_531 vssd1 vssd1 vccd1 vccd1 sky130_fd_sc_hd__fill_1
XFILLER_0_63_361 vssd1 vssd1 vccd1 vccd1 sky130_ef_sc_hd__decap_12
XFILLER_0_23_225 vssd1 vssd1 vccd1 vccd1 sky130_ef_sc_hd__decap_12
XFILLER_0_48_26 vssd1 vssd1 vccd1 vccd1 sky130_fd_sc_hd__fill_2
XANTENNA__1444__A _2256_/A vssd1 vssd1 vccd1 vccd1 sky130_fd_sc_hd__diode_2
X_1270_ _1270_/A1 _2708_/A _1270_/B1 _2500_/B vssd1 vssd1 vccd1 vccd1 _1272_/A sky130_fd_sc_hd__o22ai_2
XFILLER_0_58_100 vssd1 vssd1 vccd1 vccd1 sky130_fd_sc_hd__fill_2
XFILLER_0_58_133 vssd1 vssd1 vccd1 vccd1 sky130_fd_sc_hd__fill_2
XFILLER_0_58_111 vssd1 vssd1 vccd1 vccd1 sky130_fd_sc_hd__fill_2
XFILLER_0_86_475 vssd1 vssd1 vccd1 vccd1 sky130_fd_sc_hd__fill_1
XANTENNA__1610__C _2087_/B vssd1 vssd1 vccd1 vccd1 sky130_fd_sc_hd__diode_2
XFILLER_0_74_637 vssd1 vssd1 vccd1 vccd1 sky130_fd_sc_hd__decap_6
XFILLER_0_104_97 vssd1 vssd1 vccd1 vccd1 sky130_ef_sc_hd__decap_12
XFILLER_0_27_553 vssd1 vssd1 vccd1 vccd1 sky130_fd_sc_hd__decap_6
XFILLER_0_39_391 vssd1 vssd1 vccd1 vccd1 sky130_fd_sc_hd__fill_1
XFILLER_0_82_681 vssd1 vssd1 vccd1 vccd1 sky130_ef_sc_hd__decap_12
XFILLER_0_27_597 vssd1 vssd1 vccd1 vccd1 sky130_ef_sc_hd__decap_12
XFILLER_0_42_501 vssd1 vssd1 vccd1 vccd1 sky130_ef_sc_hd__decap_12
X_2724_ _2724_/A _2724_/B _2724_/C vssd1 vssd1 vccd1 vccd1 _2725_/A sky130_fd_sc_hd__nand3_1
XFILLER_0_42_545 vssd1 vssd1 vccd1 vccd1 sky130_ef_sc_hd__decap_12
XFILLER_0_112_411 vssd1 vssd1 vccd1 vccd1 sky130_fd_sc_hd__fill_1
X_2655_ _2663_/B vssd1 vssd1 vccd1 vccd1 _2656_/A sky130_fd_sc_hd__inv_2
Xoutput401 _2567_/Y vssd1 vssd1 vccd1 vccd1 mports_o[131] sky130_fd_sc_hd__buf_12
XFILLER_0_2_642 vssd1 vssd1 vccd1 vccd1 sky130_fd_sc_hd__fill_2
XFILLER_0_42_589 vssd1 vssd1 vccd1 vccd1 sky130_ef_sc_hd__decap_12
XFILLER_0_112_477 vssd1 vssd1 vccd1 vccd1 sky130_ef_sc_hd__decap_12
X_1606_ _2420_/A _2652_/B _2500_/B vssd1 vssd1 vccd1 vccd1 _1626_/A sky130_fd_sc_hd__nand3_1
Xoutput434 _2197_/Y vssd1 vssd1 vccd1 vccd1 mports_o[39] sky130_fd_sc_hd__buf_12
Xoutput423 _2173_/Y vssd1 vssd1 vccd1 vccd1 mports_o[29] sky130_fd_sc_hd__buf_12
Xoutput412 _1650_/X vssd1 vssd1 vccd1 vccd1 mports_o[19] sky130_fd_sc_hd__buf_12
Xoutput456 _2239_/X vssd1 vssd1 vccd1 vccd1 mports_o[59] sky130_fd_sc_hd__buf_12
Xoutput478 _2358_/X vssd1 vssd1 vccd1 vccd1 mports_o[79] sky130_fd_sc_hd__buf_12
Xoutput445 _2219_/X vssd1 vssd1 vccd1 vccd1 mports_o[49] sky130_fd_sc_hd__buf_12
XFILLER_0_1_174 vssd1 vssd1 vccd1 vccd1 sky130_fd_sc_hd__fill_2
Xoutput467 _2340_/Y vssd1 vssd1 vccd1 vccd1 mports_o[69] sky130_fd_sc_hd__buf_12
X_2586_ _2586_/A _2604_/B vssd1 vssd1 vccd1 vccd1 _2586_/Y sky130_fd_sc_hd__nor2_2
X_1537_ _1537_/A1 _1470_/A _1537_/B1 _1265_/X vssd1 vssd1 vccd1 vccd1 _1538_/B sky130_fd_sc_hd__o22ai_4
XFILLER_0_10_475 vssd1 vssd1 vccd1 vccd1 sky130_fd_sc_hd__fill_1
Xoutput489 _2378_/X vssd1 vssd1 vccd1 vccd1 mports_o[89] sky130_fd_sc_hd__buf_12
X_1468_ _1473_/A _2060_/B vssd1 vssd1 vccd1 vccd1 _1509_/A sky130_fd_sc_hd__nand2_1
XFILLER_0_38_70 vssd1 vssd1 vccd1 vccd1 sky130_ef_sc_hd__decap_12
X_1399_ _1399_/A _2708_/A vssd1 vssd1 vccd1 vccd1 _1400_/B sky130_fd_sc_hd__nand2_1
XFILLER_0_97_729 vssd1 vssd1 vccd1 vccd1 sky130_fd_sc_hd__decap_4
XTAP_1118 vssd1 vccd1 sky130_fd_sc_hd__tapvpwrvgnd_1
XTAP_1129 vssd1 vccd1 sky130_fd_sc_hd__tapvpwrvgnd_1
XTAP_1107 vssd1 vccd1 sky130_fd_sc_hd__tapvpwrvgnd_1
XFILLER_0_92_401 vssd1 vssd1 vccd1 vccd1 sky130_ef_sc_hd__decap_12
XFILLER_0_65_615 vssd1 vssd1 vccd1 vccd1 sky130_fd_sc_hd__fill_1
XFILLER_0_77_497 vssd1 vssd1 vccd1 vccd1 sky130_fd_sc_hd__decap_6
XFILLER_0_64_103 vssd1 vssd1 vccd1 vccd1 sky130_fd_sc_hd__fill_2
XFILLER_0_37_317 vssd1 vssd1 vccd1 vccd1 sky130_ef_sc_hd__decap_12
XFILLER_0_92_445 vssd1 vssd1 vccd1 vccd1 sky130_ef_sc_hd__decap_12
XFILLER_0_64_136 vssd1 vssd1 vccd1 vccd1 sky130_fd_sc_hd__fill_2
XFILLER_0_18_531 vssd1 vssd1 vccd1 vccd1 sky130_fd_sc_hd__fill_1
XFILLER_0_52_309 vssd1 vssd1 vccd1 vccd1 sky130_ef_sc_hd__decap_12
XFILLER_0_92_489 vssd1 vssd1 vccd1 vccd1 sky130_ef_sc_hd__decap_12
XFILLER_0_45_361 vssd1 vssd1 vccd1 vccd1 sky130_ef_sc_hd__decap_12
XFILLER_0_5_480 vssd1 vssd1 vccd1 vccd1 sky130_fd_sc_hd__decap_4
XFILLER_0_21_729 vssd1 vssd1 vccd1 vccd1 sky130_fd_sc_hd__decap_4
XFILLER_0_87_217 vssd1 vssd1 vccd1 vccd1 sky130_fd_sc_hd__decap_6
XTAP_1630 vssd1 vccd1 sky130_fd_sc_hd__tapvpwrvgnd_1
XTAP_1641 vssd1 vccd1 sky130_fd_sc_hd__tapvpwrvgnd_1
XFILLER_0_68_475 vssd1 vssd1 vccd1 vccd1 sky130_fd_sc_hd__fill_1
XTAP_1685 vssd1 vccd1 sky130_fd_sc_hd__tapvpwrvgnd_1
XTAP_1674 vssd1 vccd1 sky130_fd_sc_hd__tapvpwrvgnd_1
XTAP_1663 vssd1 vccd1 sky130_fd_sc_hd__tapvpwrvgnd_1
XTAP_1652 vssd1 vccd1 sky130_fd_sc_hd__tapvpwrvgnd_1
XFILLER_0_95_261 vssd1 vssd1 vccd1 vccd1 sky130_ef_sc_hd__decap_12
XFILLER_0_56_637 vssd1 vssd1 vccd1 vccd1 sky130_fd_sc_hd__decap_6
XANTENNA__1969__A2 _1295_/X vssd1 vssd1 vccd1 vccd1 sky130_fd_sc_hd__diode_2
XFILLER_0_55_103 vssd1 vssd1 vccd1 vccd1 sky130_fd_sc_hd__fill_2
XFILLER_0_55_125 vssd1 vssd1 vccd1 vccd1 sky130_ef_sc_hd__decap_12
XTAP_1696 vssd1 vccd1 sky130_fd_sc_hd__tapvpwrvgnd_1
XFILLER_0_50_27 vssd1 vssd1 vccd1 vccd1 sky130_fd_sc_hd__fill_1
XFILLER_0_71_629 vssd1 vssd1 vccd1 vccd1 sky130_ef_sc_hd__decap_12
XFILLER_0_70_117 vssd1 vssd1 vccd1 vccd1 sky130_fd_sc_hd__fill_2
XFILLER_0_64_681 vssd1 vssd1 vccd1 vccd1 sky130_ef_sc_hd__decap_12
XFILLER_0_24_501 vssd1 vssd1 vccd1 vccd1 sky130_ef_sc_hd__decap_12
XFILLER_0_55_169 vssd1 vssd1 vccd1 vccd1 sky130_ef_sc_hd__decap_12
XFILLER_0_24_545 vssd1 vssd1 vccd1 vccd1 sky130_ef_sc_hd__decap_12
XFILLER_0_24_589 vssd1 vssd1 vccd1 vccd1 sky130_ef_sc_hd__decap_12
X_2440_ _2458_/A _2603_/A vssd1 vssd1 vccd1 vccd1 _2440_/Y sky130_fd_sc_hd__nor2_1
XFILLER_0_11_217 vssd1 vssd1 vccd1 vccd1 sky130_fd_sc_hd__decap_6
X_2371_ _2548_/A _2377_/B vssd1 vssd1 vccd1 vccd1 _2372_/A sky130_fd_sc_hd__and2_1
X_1322_ hold31/X vssd1 vssd1 vccd1 vccd1 _2663_/A sky130_fd_sc_hd__clkbuf_16
XFILLER_0_75_57 vssd1 vssd1 vccd1 vccd1 sky130_fd_sc_hd__fill_2
X_1253_ _1265_/A vssd1 vssd1 vccd1 vccd1 _2266_/B sky130_fd_sc_hd__buf_8
XANTENNA__1902__A _1976_/A vssd1 vssd1 vccd1 vccd1 sky130_fd_sc_hd__diode_2
XFILLER_0_79_729 vssd1 vssd1 vccd1 vccd1 sky130_fd_sc_hd__fill_1
XFILLER_0_93_209 vssd1 vssd1 vccd1 vccd1 sky130_ef_sc_hd__decap_12
XFILLER_0_91_89 vssd1 vssd1 vccd1 vccd1 sky130_fd_sc_hd__fill_2
XFILLER_0_47_615 vssd1 vssd1 vccd1 vccd1 sky130_fd_sc_hd__fill_1
XFILLER_0_115_96 vssd1 vssd1 vccd1 vccd1 sky130_fd_sc_hd__fill_2
XFILLER_0_74_401 vssd1 vssd1 vccd1 vccd1 sky130_ef_sc_hd__decap_12