* NGSPICE file created from mac.ext - technology: sky130A

* Black-box entry subcircuit for sky130_fd_sc_hd__tapvpwrvgnd_1 abstract view
.subckt sky130_fd_sc_hd__tapvpwrvgnd_1 VGND VPWR
.ends

* Black-box entry subcircuit for sky130_fd_sc_hd__nand2_1 abstract view
.subckt sky130_fd_sc_hd__nand2_1 A B VGND VNB VPB VPWR Y
.ends

* Black-box entry subcircuit for sky130_fd_sc_hd__inv_2 abstract view
.subckt sky130_fd_sc_hd__inv_2 A VGND VNB VPB VPWR Y
.ends

* Black-box entry subcircuit for sky130_fd_sc_hd__fill_2 abstract view
.subckt sky130_fd_sc_hd__fill_2 VGND VNB VPB VPWR
.ends

* Black-box entry subcircuit for sky130_fd_sc_hd__or2_1 abstract view
.subckt sky130_fd_sc_hd__or2_1 A B VGND VNB VPB VPWR X
.ends

* Black-box entry subcircuit for sky130_fd_sc_hd__fill_1 abstract view
.subckt sky130_fd_sc_hd__fill_1 VGND VNB VPB VPWR
.ends

* Black-box entry subcircuit for sky130_fd_sc_hd__nand3_1 abstract view
.subckt sky130_fd_sc_hd__nand3_1 A B C VGND VNB VPB VPWR Y
.ends

* Black-box entry subcircuit for sky130_fd_sc_hd__nand3b_2 abstract view
.subckt sky130_fd_sc_hd__nand3b_2 A_N B C VGND VNB VPB VPWR Y
.ends

* Black-box entry subcircuit for sky130_fd_sc_hd__decap_3 abstract view
.subckt sky130_fd_sc_hd__decap_3 VGND VNB VPB VPWR
.ends

* Black-box entry subcircuit for sky130_fd_sc_hd__nand3b_1 abstract view
.subckt sky130_fd_sc_hd__nand3b_1 A_N B C VGND VNB VPB VPWR Y
.ends

* Black-box entry subcircuit for sky130_fd_sc_hd__diode_2 abstract view
.subckt sky130_fd_sc_hd__diode_2 DIODE VGND VNB VPB VPWR
.ends

* Black-box entry subcircuit for sky130_fd_sc_hd__decap_8 abstract view
.subckt sky130_fd_sc_hd__decap_8 VGND VNB VPB VPWR
.ends

* Black-box entry subcircuit for sky130_fd_sc_hd__dfrtp_1 abstract view
.subckt sky130_fd_sc_hd__dfrtp_1 CLK D RESET_B VGND VNB VPB VPWR Q
.ends

* Black-box entry subcircuit for sky130_fd_sc_hd__decap_6 abstract view
.subckt sky130_fd_sc_hd__decap_6 VGND VNB VPB VPWR
.ends

* Black-box entry subcircuit for sky130_fd_sc_hd__xor2_1 abstract view
.subckt sky130_fd_sc_hd__xor2_1 A B VGND VNB VPB VPWR X
.ends

* Black-box entry subcircuit for sky130_fd_sc_hd__inv_4 abstract view
.subckt sky130_fd_sc_hd__inv_4 A VGND VNB VPB VPWR Y
.ends

* Black-box entry subcircuit for sky130_ef_sc_hd__decap_12 abstract view
.subckt sky130_ef_sc_hd__decap_12 VGND VNB VPB VPWR
.ends

* Black-box entry subcircuit for sky130_fd_sc_hd__decap_4 abstract view
.subckt sky130_fd_sc_hd__decap_4 VGND VNB VPB VPWR
.ends

* Black-box entry subcircuit for sky130_fd_sc_hd__nor2_1 abstract view
.subckt sky130_fd_sc_hd__nor2_1 A B VGND VNB VPB VPWR Y
.ends

* Black-box entry subcircuit for sky130_fd_sc_hd__o21a_1 abstract view
.subckt sky130_fd_sc_hd__o21a_1 A1 A2 B1 VGND VNB VPB VPWR X
.ends

* Black-box entry subcircuit for sky130_fd_sc_hd__a21oi_1 abstract view
.subckt sky130_fd_sc_hd__a21oi_1 A1 A2 B1 VGND VNB VPB VPWR Y
.ends

* Black-box entry subcircuit for sky130_fd_sc_hd__nand3_2 abstract view
.subckt sky130_fd_sc_hd__nand3_2 A B C VGND VNB VPB VPWR Y
.ends

* Black-box entry subcircuit for sky130_fd_sc_hd__or3_1 abstract view
.subckt sky130_fd_sc_hd__or3_1 A B C VGND VNB VPB VPWR X
.ends

* Black-box entry subcircuit for sky130_fd_sc_hd__nand2_2 abstract view
.subckt sky130_fd_sc_hd__nand2_2 A B VGND VNB VPB VPWR Y
.ends

* Black-box entry subcircuit for sky130_fd_sc_hd__or4_1 abstract view
.subckt sky130_fd_sc_hd__or4_1 A B C D VGND VNB VPB VPWR X
.ends

* Black-box entry subcircuit for sky130_fd_sc_hd__nor3_1 abstract view
.subckt sky130_fd_sc_hd__nor3_1 A B C VGND VNB VPB VPWR Y
.ends

* Black-box entry subcircuit for sky130_fd_sc_hd__o21ai_1 abstract view
.subckt sky130_fd_sc_hd__o21ai_1 A1 A2 B1 VGND VNB VPB VPWR Y
.ends

* Black-box entry subcircuit for sky130_fd_sc_hd__and4_1 abstract view
.subckt sky130_fd_sc_hd__and4_1 A B C D VGND VNB VPB VPWR X
.ends

* Black-box entry subcircuit for sky130_fd_sc_hd__dlygate4sd3_1 abstract view
.subckt sky130_fd_sc_hd__dlygate4sd3_1 A VGND VNB VPB VPWR X
.ends

* Black-box entry subcircuit for sky130_fd_sc_hd__a21oi_2 abstract view
.subckt sky130_fd_sc_hd__a21oi_2 A1 A2 B1 VGND VNB VPB VPWR Y
.ends

* Black-box entry subcircuit for sky130_fd_sc_hd__buf_12 abstract view
.subckt sky130_fd_sc_hd__buf_12 A VGND VNB VPB VPWR X
.ends

* Black-box entry subcircuit for sky130_fd_sc_hd__a21bo_1 abstract view
.subckt sky130_fd_sc_hd__a21bo_1 A1 A2 B1_N VGND VNB VPB VPWR X
.ends

* Black-box entry subcircuit for sky130_fd_sc_hd__or2b_1 abstract view
.subckt sky130_fd_sc_hd__or2b_1 A B_N VGND VNB VPB VPWR X
.ends

* Black-box entry subcircuit for sky130_fd_sc_hd__nor2_2 abstract view
.subckt sky130_fd_sc_hd__nor2_2 A B VGND VNB VPB VPWR Y
.ends

* Black-box entry subcircuit for sky130_fd_sc_hd__a21boi_1 abstract view
.subckt sky130_fd_sc_hd__a21boi_1 A1 A2 B1_N VGND VNB VPB VPWR Y
.ends

* Black-box entry subcircuit for sky130_fd_sc_hd__xnor2_1 abstract view
.subckt sky130_fd_sc_hd__xnor2_1 A B VGND VNB VPB VPWR Y
.ends

* Black-box entry subcircuit for sky130_fd_sc_hd__o21ba_1 abstract view
.subckt sky130_fd_sc_hd__o21ba_1 A1 A2 B1_N VGND VNB VPB VPWR X
.ends

* Black-box entry subcircuit for sky130_fd_sc_hd__buf_1 abstract view
.subckt sky130_fd_sc_hd__buf_1 A VGND VNB VPB VPWR X
.ends

* Black-box entry subcircuit for sky130_fd_sc_hd__nor2b_1 abstract view
.subckt sky130_fd_sc_hd__nor2b_1 A B_N VGND VNB VPB VPWR Y
.ends

* Black-box entry subcircuit for sky130_fd_sc_hd__a21o_1 abstract view
.subckt sky130_fd_sc_hd__a21o_1 A1 A2 B1 VGND VNB VPB VPWR X
.ends

* Black-box entry subcircuit for sky130_fd_sc_hd__a22o_1 abstract view
.subckt sky130_fd_sc_hd__a22o_1 A1 A2 B1 B2 VGND VNB VPB VPWR X
.ends

* Black-box entry subcircuit for sky130_fd_sc_hd__nand3_4 abstract view
.subckt sky130_fd_sc_hd__nand3_4 A B C VGND VNB VPB VPWR Y
.ends

* Black-box entry subcircuit for sky130_fd_sc_hd__clkbuf_8 abstract view
.subckt sky130_fd_sc_hd__clkbuf_8 A VGND VNB VPB VPWR X
.ends

* Black-box entry subcircuit for sky130_fd_sc_hd__nor3_2 abstract view
.subckt sky130_fd_sc_hd__nor3_2 A B C VGND VNB VPB VPWR Y
.ends

* Black-box entry subcircuit for sky130_fd_sc_hd__buf_8 abstract view
.subckt sky130_fd_sc_hd__buf_8 A VGND VNB VPB VPWR X
.ends

* Black-box entry subcircuit for sky130_fd_sc_hd__o21ai_2 abstract view
.subckt sky130_fd_sc_hd__o21ai_2 A1 A2 B1 VGND VNB VPB VPWR Y
.ends

* Black-box entry subcircuit for sky130_fd_sc_hd__nand2b_1 abstract view
.subckt sky130_fd_sc_hd__nand2b_1 A_N B VGND VNB VPB VPWR Y
.ends

* Black-box entry subcircuit for sky130_fd_sc_hd__clkbuf_1 abstract view
.subckt sky130_fd_sc_hd__clkbuf_1 A VGND VNB VPB VPWR X
.ends

* Black-box entry subcircuit for sky130_fd_sc_hd__buf_6 abstract view
.subckt sky130_fd_sc_hd__buf_6 A VGND VNB VPB VPWR X
.ends

* Black-box entry subcircuit for sky130_fd_sc_hd__o21bai_1 abstract view
.subckt sky130_fd_sc_hd__o21bai_1 A1 A2 B1_N VGND VNB VPB VPWR Y
.ends

* Black-box entry subcircuit for sky130_fd_sc_hd__buf_4 abstract view
.subckt sky130_fd_sc_hd__buf_4 A VGND VNB VPB VPWR X
.ends

* Black-box entry subcircuit for sky130_fd_sc_hd__xor2_2 abstract view
.subckt sky130_fd_sc_hd__xor2_2 A B VGND VNB VPB VPWR X
.ends

* Black-box entry subcircuit for sky130_fd_sc_hd__and2b_1 abstract view
.subckt sky130_fd_sc_hd__and2b_1 A_N B VGND VNB VPB VPWR X
.ends

* Black-box entry subcircuit for sky130_fd_sc_hd__a21oi_4 abstract view
.subckt sky130_fd_sc_hd__a21oi_4 A1 A2 B1 VGND VNB VPB VPWR Y
.ends

* Black-box entry subcircuit for sky130_fd_sc_hd__and2_1 abstract view
.subckt sky130_fd_sc_hd__and2_1 A B VGND VNB VPB VPWR X
.ends

* Black-box entry subcircuit for sky130_fd_sc_hd__clkbuf_16 abstract view
.subckt sky130_fd_sc_hd__clkbuf_16 A VGND VNB VPB VPWR X
.ends

* Black-box entry subcircuit for sky130_fd_sc_hd__a31o_1 abstract view
.subckt sky130_fd_sc_hd__a31o_1 A1 A2 A3 B1 VGND VNB VPB VPWR X
.ends

* Black-box entry subcircuit for sky130_fd_sc_hd__or4_2 abstract view
.subckt sky130_fd_sc_hd__or4_2 A B C D VGND VNB VPB VPWR X
.ends

* Black-box entry subcircuit for sky130_fd_sc_hd__a31oi_1 abstract view
.subckt sky130_fd_sc_hd__a31oi_1 A1 A2 A3 B1 VGND VNB VPB VPWR Y
.ends

* Black-box entry subcircuit for sky130_fd_sc_hd__a21boi_2 abstract view
.subckt sky130_fd_sc_hd__a21boi_2 A1 A2 B1_N VGND VNB VPB VPWR Y
.ends

* Black-box entry subcircuit for sky130_fd_sc_hd__and3_1 abstract view
.subckt sky130_fd_sc_hd__and3_1 A B C VGND VNB VPB VPWR X
.ends

* Black-box entry subcircuit for sky130_fd_sc_hd__or2_2 abstract view
.subckt sky130_fd_sc_hd__or2_2 A B VGND VNB VPB VPWR X
.ends

* Black-box entry subcircuit for sky130_fd_sc_hd__dfrtp_2 abstract view
.subckt sky130_fd_sc_hd__dfrtp_2 CLK D RESET_B VGND VNB VPB VPWR Q
.ends

* Black-box entry subcircuit for sky130_fd_sc_hd__clkbuf_4 abstract view
.subckt sky130_fd_sc_hd__clkbuf_4 A VGND VNB VPB VPWR X
.ends

* Black-box entry subcircuit for sky130_fd_sc_hd__buf_2 abstract view
.subckt sky130_fd_sc_hd__buf_2 A VGND VNB VPB VPWR X
.ends

* Black-box entry subcircuit for sky130_fd_sc_hd__or3b_1 abstract view
.subckt sky130_fd_sc_hd__or3b_1 A B C_N VGND VNB VPB VPWR X
.ends

* Black-box entry subcircuit for sky130_fd_sc_hd__a21boi_4 abstract view
.subckt sky130_fd_sc_hd__a21boi_4 A1 A2 B1_N VGND VNB VPB VPWR Y
.ends

* Black-box entry subcircuit for sky130_fd_sc_hd__clkbuf_2 abstract view
.subckt sky130_fd_sc_hd__clkbuf_2 A VGND VNB VPB VPWR X
.ends

* Black-box entry subcircuit for sky130_fd_sc_hd__dlymetal6s2s_1 abstract view
.subckt sky130_fd_sc_hd__dlymetal6s2s_1 A VGND VNB VPB VPWR X
.ends

* Black-box entry subcircuit for sky130_fd_sc_hd__clkinv_4 abstract view
.subckt sky130_fd_sc_hd__clkinv_4 A VGND VNB VPB VPWR Y
.ends

* Black-box entry subcircuit for sky130_fd_sc_hd__nand3b_4 abstract view
.subckt sky130_fd_sc_hd__nand3b_4 A_N B C VGND VNB VPB VPWR Y
.ends

* Black-box entry subcircuit for sky130_fd_sc_hd__clkinvlp_2 abstract view
.subckt sky130_fd_sc_hd__clkinvlp_2 A VGND VNB VPB VPWR Y
.ends

.subckt mac a_i[0] a_i[10] a_i[11] a_i[12] a_i[13] a_i[14] a_i[15] a_i[16] a_i[17]
+ a_i[18] a_i[19] a_i[1] a_i[20] a_i[21] a_i[22] a_i[23] a_i[24] a_i[25] a_i[26] a_i[27]
+ a_i[28] a_i[29] a_i[2] a_i[30] a_i[31] a_i[3] a_i[4] a_i[5] a_i[6] a_i[7] a_i[8]
+ a_i[9] b_i[0] b_i[10] b_i[11] b_i[12] b_i[13] b_i[14] b_i[15] b_i[16] b_i[17] b_i[18]
+ b_i[19] b_i[1] b_i[20] b_i[21] b_i[22] b_i[23] b_i[24] b_i[25] b_i[26] b_i[27] b_i[28]
+ b_i[29] b_i[2] b_i[30] b_i[31] b_i[3] b_i[4] b_i[5] b_i[6] b_i[7] b_i[8] b_i[9]
+ clk nrst vccd1 vssd1 y_o[0] y_o[10] y_o[11] y_o[12] y_o[13] y_o[14] y_o[15] y_o[16]
+ y_o[17] y_o[18] y_o[19] y_o[1] y_o[20] y_o[21] y_o[22] y_o[23] y_o[24] y_o[25] y_o[26]
+ y_o[27] y_o[28] y_o[29] y_o[2] y_o[30] y_o[31] y_o[3] y_o[4] y_o[5] y_o[6] y_o[7]
+ y_o[8] y_o[9]
XTAP_188 vssd1 vccd1 sky130_fd_sc_hd__tapvpwrvgnd_1
XTAP_177 vssd1 vccd1 sky130_fd_sc_hd__tapvpwrvgnd_1
XTAP_199 vssd1 vccd1 sky130_fd_sc_hd__tapvpwrvgnd_1
X_05903_ _08574_/A _10151_/B vssd1 vssd1 vccd1 vccd1 _05906_/B sky130_fd_sc_hd__nand2_1
X_09671_ _09673_/A vssd1 vssd1 vccd1 vccd1 _09672_/B sky130_fd_sc_hd__inv_2
X_06883_ _06884_/B _06884_/A vssd1 vssd1 vccd1 vccd1 _06883_/Y sky130_fd_sc_hd__nand2_1
X_08622_ _08622_/A vssd1 vssd1 vccd1 vccd1 _08623_/C sky130_fd_sc_hd__inv_2
X_05834_ _05836_/C vssd1 vssd1 vccd1 vccd1 _05835_/B sky130_fd_sc_hd__inv_2
X_05765_ _05855_/A _05854_/A vssd1 vssd1 vccd1 vccd1 _05765_/Y sky130_fd_sc_hd__nand2_1
X_08553_ _08562_/B vssd1 vssd1 vccd1 vccd1 _08554_/B sky130_fd_sc_hd__inv_2
XFILLER_0_9_400 vssd1 vssd1 vccd1 vccd1 sky130_fd_sc_hd__fill_2
X_07504_ _07504_/A _07504_/B vssd1 vssd1 vccd1 vccd1 _07614_/B sky130_fd_sc_hd__nand2_1
X_08484_ _08485_/A _08485_/B vssd1 vssd1 vccd1 vccd1 _08486_/A sky130_fd_sc_hd__or2_1
XFILLER_0_76_144 vssd1 vssd1 vccd1 vccd1 sky130_fd_sc_hd__fill_2
XFILLER_0_9_422 vssd1 vssd1 vccd1 vccd1 sky130_fd_sc_hd__fill_1
X_07435_ _07436_/B _07435_/B _07435_/C vssd1 vssd1 vccd1 vccd1 _07713_/B sky130_fd_sc_hd__nand3_1
X_05696_ _05696_/A _05696_/B vssd1 vssd1 vccd1 vccd1 _05697_/A sky130_fd_sc_hd__nand2_1
X_07366_ _07453_/B _07452_/A _07452_/B vssd1 vssd1 vccd1 vccd1 _07545_/B sky130_fd_sc_hd__nand3b_2
X_09105_ _09105_/A _09105_/B vssd1 vssd1 vccd1 vccd1 _09105_/Y sky130_fd_sc_hd__nand2_1
XFILLER_0_72_361 vssd1 vssd1 vccd1 vccd1 sky130_fd_sc_hd__decap_3
X_07297_ _07297_/A _07297_/B vssd1 vssd1 vccd1 vccd1 _07301_/A sky130_fd_sc_hd__nand2_1
X_06317_ _06317_/A _06317_/B vssd1 vssd1 vccd1 vccd1 _06688_/B sky130_fd_sc_hd__nand2_1
X_09036_ _09036_/A _09036_/B _09036_/C vssd1 vssd1 vccd1 vccd1 _09037_/B sky130_fd_sc_hd__nand3_1
X_06248_ _06248_/A _06248_/B _06248_/C vssd1 vssd1 vccd1 vccd1 _06413_/C sky130_fd_sc_hd__nand3_1
X_06179_ _06299_/A _06179_/B _06179_/C vssd1 vssd1 vccd1 vccd1 _06221_/C sky130_fd_sc_hd__nand3_1
XFILLER_0_40_291 vssd1 vssd1 vccd1 vccd1 sky130_fd_sc_hd__fill_1
X_09938_ _09936_/Y _09938_/B _09938_/C vssd1 vssd1 vccd1 vccd1 _09939_/B sky130_fd_sc_hd__nand3b_1
X_09869_ _10305_/B _09869_/B vssd1 vssd1 vccd1 vccd1 _09893_/A sky130_fd_sc_hd__nand2_1
XANTENNA__07523__A _08724_/A vssd1 vssd1 vccd1 vccd1 sky130_fd_sc_hd__diode_2
XFILLER_0_82_125 vssd1 vssd1 vccd1 vccd1 sky130_fd_sc_hd__decap_8
XFILLER_0_67_188 vssd1 vssd1 vccd1 vccd1 sky130_fd_sc_hd__fill_2
X_10713_ _10718_/CLK _10713_/D fanout99/X vssd1 vssd1 vccd1 vccd1 hold58/A sky130_fd_sc_hd__dfrtp_1
XFILLER_0_82_158 vssd1 vssd1 vccd1 vccd1 sky130_fd_sc_hd__decap_8
XFILLER_0_70_309 vssd1 vssd1 vccd1 vccd1 sky130_fd_sc_hd__decap_6
X_10644_ _10644_/A _10644_/B vssd1 vssd1 vccd1 vccd1 _10712_/D sky130_fd_sc_hd__xor2_1
X_10575_ _10575_/A vssd1 vssd1 vccd1 vccd1 _10707_/A sky130_fd_sc_hd__inv_4
XFILLER_0_23_225 vssd1 vssd1 vccd1 vccd1 sky130_fd_sc_hd__decap_8
XANTENNA__10108__B _10108_/B vssd1 vssd1 vccd1 vccd1 sky130_fd_sc_hd__diode_2
XANTENNA__09202__A1 _09201_/A vssd1 vssd1 vccd1 vccd1 sky130_fd_sc_hd__diode_2
X_10009_ _10010_/B _10010_/A vssd1 vssd1 vccd1 vccd1 _10184_/A sky130_fd_sc_hd__or2_1
XANTENNA__09632__B _10103_/B vssd1 vssd1 vccd1 vccd1 sky130_fd_sc_hd__diode_2
XANTENNA__08529__A _09971_/A vssd1 vssd1 vccd1 vccd1 sky130_fd_sc_hd__diode_2
XFILLER_0_58_133 vssd1 vssd1 vccd1 vccd1 sky130_fd_sc_hd__decap_6
X_05550_ _05600_/A vssd1 vssd1 vccd1 vccd1 _05553_/A sky130_fd_sc_hd__inv_2
XANTENNA__07152__B _10201_/A vssd1 vssd1 vccd1 vccd1 sky130_fd_sc_hd__diode_2
XANTENNA__06049__A _09517_/C vssd1 vssd1 vccd1 vccd1 sky130_fd_sc_hd__diode_2
XFILLER_0_46_328 vssd1 vssd1 vccd1 vccd1 sky130_ef_sc_hd__decap_12
X_05481_ _05497_/A _05497_/B vssd1 vssd1 vccd1 vccd1 _05496_/A sky130_fd_sc_hd__nand2_1
XFILLER_0_73_169 vssd1 vssd1 vccd1 vccd1 sky130_fd_sc_hd__fill_1
XFILLER_0_73_158 vssd1 vssd1 vccd1 vccd1 sky130_fd_sc_hd__decap_4
X_07220_ _10275_/B _10156_/A vssd1 vssd1 vccd1 vccd1 _07221_/A sky130_fd_sc_hd__nand2_1
XFILLER_0_54_361 vssd1 vssd1 vccd1 vccd1 sky130_fd_sc_hd__decap_3
X_07151_ _07319_/A _07320_/B vssd1 vssd1 vccd1 vccd1 _07323_/C sky130_fd_sc_hd__nand2_1
XFILLER_0_6_436 vssd1 vssd1 vccd1 vccd1 sky130_ef_sc_hd__decap_12
XFILLER_0_13_95 vssd1 vssd1 vccd1 vccd1 sky130_fd_sc_hd__decap_8
XFILLER_0_81_191 vssd1 vssd1 vccd1 vccd1 sky130_fd_sc_hd__decap_4
XFILLER_0_81_180 vssd1 vssd1 vccd1 vccd1 sky130_fd_sc_hd__decap_4
XFILLER_0_80_7 vssd1 vssd1 vccd1 vccd1 sky130_fd_sc_hd__fill_1
X_06102_ _06921_/B _06102_/B vssd1 vssd1 vccd1 vccd1 _06104_/A sky130_fd_sc_hd__nand2_1
XANTENNA__05400__B _09602_/B vssd1 vssd1 vccd1 vccd1 sky130_fd_sc_hd__diode_2
XFILLER_0_14_258 vssd1 vssd1 vccd1 vccd1 sky130_fd_sc_hd__decap_6
X_07082_ _07084_/B vssd1 vssd1 vccd1 vccd1 _07083_/B sky130_fd_sc_hd__inv_2
X_06033_ _06032_/B _06841_/B _06033_/C vssd1 vssd1 vccd1 vccd1 _06841_/A sky130_fd_sc_hd__nand3b_1
XFILLER_0_1_130 vssd1 vssd1 vccd1 vccd1 sky130_fd_sc_hd__fill_1
XANTENNA__06512__A _08337_/A vssd1 vssd1 vccd1 vccd1 sky130_fd_sc_hd__diode_2
X_07984_ _07986_/A _07986_/B vssd1 vssd1 vccd1 vccd1 _07985_/A sky130_fd_sc_hd__nor2_1
XFILLER_0_38_81 vssd1 vssd1 vccd1 vccd1 sky130_fd_sc_hd__decap_3
X_09723_ _10060_/A _09729_/B vssd1 vssd1 vccd1 vccd1 _09896_/B sky130_fd_sc_hd__nand2_1
X_06935_ _07284_/B _06935_/B vssd1 vssd1 vccd1 vccd1 _06937_/A sky130_fd_sc_hd__nand2_1
X_06866_ _06866_/A _06866_/B vssd1 vssd1 vccd1 vccd1 _06867_/B sky130_fd_sc_hd__nand2_1
X_09654_ _09654_/A vssd1 vssd1 vccd1 vccd1 _09932_/B sky130_fd_sc_hd__inv_2
X_05817_ _05827_/B _06057_/A vssd1 vssd1 vccd1 vccd1 _05826_/A sky130_fd_sc_hd__nand2_1
X_08605_ _10128_/A _10150_/B vssd1 vssd1 vccd1 vccd1 _08606_/A sky130_fd_sc_hd__nand2_1
XFILLER_0_77_431 vssd1 vssd1 vccd1 vccd1 sky130_fd_sc_hd__fill_2
X_09585_ _09588_/A _09831_/A vssd1 vssd1 vccd1 vccd1 _09586_/A sky130_fd_sc_hd__nand2_1
X_06797_ _06800_/A _06799_/B _08442_/A vssd1 vssd1 vccd1 vccd1 _08822_/B sky130_fd_sc_hd__nand3_1
XANTENNA__08158__B _10112_/A vssd1 vssd1 vccd1 vccd1 sky130_fd_sc_hd__diode_2
XFILLER_0_77_453 vssd1 vssd1 vccd1 vccd1 sky130_fd_sc_hd__fill_2
X_08536_ _08488_/B _08488_/A _08486_/A vssd1 vssd1 vccd1 vccd1 _08630_/A sky130_fd_sc_hd__o21a_1
X_05748_ _06227_/C _06227_/B _05747_/Y vssd1 vssd1 vccd1 vccd1 _06106_/A sky130_fd_sc_hd__a21oi_1
X_08467_ _08467_/A _08467_/B vssd1 vssd1 vccd1 vccd1 _08869_/B sky130_fd_sc_hd__nand2_1
XANTENNA__09680__A1 _10004_/A vssd1 vssd1 vccd1 vccd1 sky130_fd_sc_hd__diode_2
X_05679_ _05683_/B _05680_/A vssd1 vssd1 vccd1 vccd1 _05682_/A sky130_fd_sc_hd__nand2_1
XANTENNA__09680__B2 _09678_/C vssd1 vssd1 vccd1 vccd1 sky130_fd_sc_hd__diode_2
X_08398_ _09602_/B vssd1 vssd1 vccd1 vccd1 _10188_/A sky130_fd_sc_hd__inv_2
XFILLER_0_52_309 vssd1 vssd1 vccd1 vccd1 sky130_ef_sc_hd__decap_12
X_07418_ _07418_/A _07418_/B vssd1 vssd1 vccd1 vccd1 _07441_/B sky130_fd_sc_hd__nand2_1
X_07349_ _07349_/A _07349_/B vssd1 vssd1 vccd1 vccd1 _07351_/A sky130_fd_sc_hd__nand2_1
X_10360_ _10385_/A _10360_/B vssd1 vssd1 vccd1 vccd1 _10361_/A sky130_fd_sc_hd__nand2_1
X_10291_ _10294_/B _10294_/C vssd1 vssd1 vccd1 vccd1 _10293_/A sky130_fd_sc_hd__nand2_1
X_09019_ _09021_/C vssd1 vssd1 vccd1 vccd1 _09020_/B sky130_fd_sc_hd__inv_2
XFILLER_0_60_397 vssd1 vssd1 vccd1 vccd1 sky130_fd_sc_hd__fill_1
XANTENNA__06182__B1 _08897_/B vssd1 vssd1 vccd1 vccd1 sky130_fd_sc_hd__diode_2
XFILLER_0_28_306 vssd1 vssd1 vccd1 vccd1 sky130_fd_sc_hd__fill_2
XFILLER_0_28_317 vssd1 vssd1 vccd1 vccd1 sky130_fd_sc_hd__fill_2
XFILLER_0_55_147 vssd1 vssd1 vccd1 vccd1 sky130_fd_sc_hd__decap_3
XFILLER_0_55_169 vssd1 vssd1 vccd1 vccd1 sky130_fd_sc_hd__decap_3
XFILLER_0_36_350 vssd1 vssd1 vccd1 vccd1 sky130_fd_sc_hd__fill_1
XFILLER_0_36_361 vssd1 vssd1 vccd1 vccd1 sky130_fd_sc_hd__decap_3
X_10627_ _10627_/A vssd1 vssd1 vccd1 vccd1 _10630_/B sky130_fd_sc_hd__inv_2
XFILLER_0_70_139 vssd1 vssd1 vccd1 vccd1 sky130_fd_sc_hd__fill_1
XFILLER_0_3_417 vssd1 vssd1 vccd1 vccd1 sky130_fd_sc_hd__fill_1
X_10558_ _10558_/A _10558_/B vssd1 vssd1 vccd1 vccd1 _10559_/A sky130_fd_sc_hd__nand2_1
X_10489_ _10504_/B _10493_/B vssd1 vssd1 vccd1 vccd1 _10492_/A sky130_fd_sc_hd__nand2_1
X_06720_ _10101_/A _10150_/B vssd1 vssd1 vccd1 vccd1 _06722_/A sky130_fd_sc_hd__nand2_1
X_06651_ _06653_/C _06651_/B _06651_/C vssd1 vssd1 vccd1 vccd1 _06654_/A sky130_fd_sc_hd__nand3b_1
XANTENNA__08259__A _10284_/B vssd1 vssd1 vccd1 vccd1 sky130_fd_sc_hd__diode_2
X_05602_ _05604_/B vssd1 vssd1 vccd1 vccd1 _05603_/B sky130_fd_sc_hd__inv_2
X_09370_ _10101_/A _10128_/B vssd1 vssd1 vccd1 vccd1 _09376_/A sky130_fd_sc_hd__nand2_1
XFILLER_0_19_306 vssd1 vssd1 vccd1 vccd1 sky130_fd_sc_hd__fill_1
X_06582_ _10284_/B _10148_/A vssd1 vssd1 vccd1 vccd1 _07061_/B sky130_fd_sc_hd__nand2_1
XFILLER_0_46_125 vssd1 vssd1 vccd1 vccd1 sky130_fd_sc_hd__decap_6
X_05533_ _05533_/A _05533_/B _05533_/C vssd1 vssd1 vccd1 vccd1 _05631_/C sky130_fd_sc_hd__nand3_1
X_08321_ _08321_/A _08321_/B vssd1 vssd1 vccd1 vccd1 _08355_/A sky130_fd_sc_hd__nand2_1
XFILLER_0_19_328 vssd1 vssd1 vccd1 vccd1 sky130_fd_sc_hd__decap_3
XFILLER_0_24_61 vssd1 vssd1 vccd1 vccd1 sky130_ef_sc_hd__decap_12
XFILLER_0_24_83 vssd1 vssd1 vccd1 vccd1 sky130_fd_sc_hd__fill_1
XFILLER_0_74_467 vssd1 vssd1 vccd1 vccd1 sky130_fd_sc_hd__fill_2
XFILLER_0_46_147 vssd1 vssd1 vccd1 vccd1 sky130_fd_sc_hd__fill_1
X_08252_ _08252_/A _08252_/B _08252_/C vssd1 vssd1 vccd1 vccd1 _08253_/B sky130_fd_sc_hd__nand3_1
X_05464_ _05913_/B vssd1 vssd1 vccd1 vccd1 _05471_/B sky130_fd_sc_hd__inv_2
XFILLER_0_61_117 vssd1 vssd1 vccd1 vccd1 sky130_fd_sc_hd__fill_1
X_07203_ _07203_/A _07203_/B _07203_/C vssd1 vssd1 vccd1 vccd1 _07205_/B sky130_fd_sc_hd__nand3_1
XFILLER_0_34_309 vssd1 vssd1 vccd1 vccd1 sky130_fd_sc_hd__fill_2
XFILLER_0_54_180 vssd1 vssd1 vccd1 vccd1 sky130_fd_sc_hd__fill_1
X_08183_ _08197_/B _08185_/B vssd1 vssd1 vccd1 vccd1 _08184_/A sky130_fd_sc_hd__nand2_1
X_05395_ _05395_/A _05395_/B vssd1 vssd1 vccd1 vccd1 _05396_/A sky130_fd_sc_hd__nand2_1
X_07134_ _07134_/A _07134_/B vssd1 vssd1 vccd1 vccd1 _07298_/B sky130_fd_sc_hd__nand2_1
XFILLER_0_42_397 vssd1 vssd1 vccd1 vccd1 sky130_fd_sc_hd__fill_1
X_07065_ _07065_/A _07065_/B _07065_/C vssd1 vssd1 vccd1 vccd1 _07066_/B sky130_fd_sc_hd__nand3_1
X_06016_ _06106_/B _06016_/B vssd1 vssd1 vccd1 vccd1 _06017_/B sky130_fd_sc_hd__nand2_1
XFILLER_0_2_472 vssd1 vssd1 vccd1 vccd1 sky130_fd_sc_hd__decap_4
XFILLER_0_4_60 vssd1 vssd1 vccd1 vccd1 sky130_fd_sc_hd__fill_1
X_07967_ _07967_/A _07967_/B vssd1 vssd1 vccd1 vccd1 _07971_/A sky130_fd_sc_hd__nand2_1
X_09706_ _09708_/B vssd1 vssd1 vccd1 vccd1 _09707_/B sky130_fd_sc_hd__inv_2
X_06918_ _06918_/A _06918_/B vssd1 vssd1 vccd1 vccd1 _06925_/B sky130_fd_sc_hd__nand2_1
X_07898_ _07898_/A vssd1 vssd1 vccd1 vccd1 _07899_/C sky130_fd_sc_hd__inv_2
XANTENNA__10211__B _10211_/B vssd1 vssd1 vccd1 vccd1 sky130_fd_sc_hd__diode_2
X_06849_ _08983_/B _06849_/B vssd1 vssd1 vccd1 vccd1 _06881_/B sky130_fd_sc_hd__nand2_1
X_09637_ _09637_/A _09637_/B vssd1 vssd1 vccd1 vccd1 _09642_/A sky130_fd_sc_hd__nand2_1
X_09568_ _09568_/A _09569_/A vssd1 vssd1 vccd1 vccd1 _09574_/B sky130_fd_sc_hd__nand2_1
XFILLER_0_77_261 vssd1 vssd1 vccd1 vccd1 sky130_fd_sc_hd__fill_2
XFILLER_0_65_412 vssd1 vssd1 vccd1 vccd1 sky130_fd_sc_hd__fill_2
X_08519_ _08519_/A _08520_/A vssd1 vssd1 vccd1 vccd1 _08523_/A sky130_fd_sc_hd__nand2_1
XFILLER_0_65_445 vssd1 vssd1 vccd1 vccd1 sky130_fd_sc_hd__decap_3
X_09499_ _09213_/A _09214_/C _09219_/A vssd1 vssd1 vccd1 vccd1 _09793_/A sky130_fd_sc_hd__o21a_1
XFILLER_0_80_459 vssd1 vssd1 vccd1 vccd1 sky130_fd_sc_hd__fill_1
XFILLER_0_18_372 vssd1 vssd1 vccd1 vccd1 sky130_fd_sc_hd__fill_2
XFILLER_0_18_383 vssd1 vssd1 vccd1 vccd1 sky130_fd_sc_hd__fill_2
XFILLER_0_18_394 vssd1 vssd1 vccd1 vccd1 sky130_fd_sc_hd__fill_1
XFILLER_0_20_19 vssd1 vssd1 vccd1 vccd1 sky130_fd_sc_hd__decap_4
XANTENNA__08632__A _10157_/A vssd1 vssd1 vccd1 vccd1 sky130_fd_sc_hd__diode_2
X_10412_ hold62/X vssd1 vssd1 vccd1 vccd1 _10413_/B sky130_fd_sc_hd__inv_2
XFILLER_0_33_353 vssd1 vssd1 vccd1 vccd1 sky130_fd_sc_hd__fill_1
XFILLER_0_33_364 vssd1 vssd1 vccd1 vccd1 sky130_fd_sc_hd__decap_4
X_10343_ _10343_/A hold52/X _10343_/C vssd1 vssd1 vccd1 vccd1 _10591_/C sky130_fd_sc_hd__nand3_1
XANTENNA__05975__B _10156_/A vssd1 vssd1 vccd1 vccd1 sky130_fd_sc_hd__diode_2
XFILLER_0_33_375 vssd1 vssd1 vccd1 vccd1 sky130_fd_sc_hd__decap_6
XANTENNA__08351__B _10292_/B vssd1 vssd1 vccd1 vccd1 sky130_fd_sc_hd__diode_2
X_10274_ _10274_/A _10274_/B vssd1 vssd1 vccd1 vccd1 _10274_/Y sky130_fd_sc_hd__nor2_1
XANTENNA__06152__A _07675_/A vssd1 vssd1 vccd1 vccd1 sky130_fd_sc_hd__diode_2
XANTENNA__10712__RESET_B fanout99/X vssd1 vssd1 vccd1 vccd1 sky130_fd_sc_hd__diode_2
XANTENNA__09910__B _10151_/B vssd1 vssd1 vccd1 vccd1 sky130_fd_sc_hd__diode_2
XFILLER_0_0_29 vssd1 vssd1 vccd1 vccd1 sky130_ef_sc_hd__decap_12
XFILLER_0_68_283 vssd1 vssd1 vccd1 vccd1 sky130_fd_sc_hd__decap_3
XFILLER_0_28_147 vssd1 vssd1 vccd1 vccd1 sky130_fd_sc_hd__decap_4
XFILLER_0_56_489 vssd1 vssd1 vccd1 vccd1 sky130_fd_sc_hd__fill_2
XFILLER_0_16_309 vssd1 vssd1 vccd1 vccd1 sky130_fd_sc_hd__decap_8
XANTENNA__06327__A _08337_/A vssd1 vssd1 vccd1 vccd1 sky130_fd_sc_hd__diode_2
XFILLER_0_3_269 vssd1 vssd1 vccd1 vccd1 sky130_fd_sc_hd__fill_2
XFILLER_0_3_258 vssd1 vssd1 vccd1 vccd1 sky130_fd_sc_hd__decap_4
XFILLER_0_10_85 vssd1 vssd1 vccd1 vccd1 sky130_fd_sc_hd__decap_4
X_08870_ _08964_/B _08964_/C vssd1 vssd1 vccd1 vccd1 _08963_/A sky130_fd_sc_hd__nand2_1
X_07821_ _07821_/A _07824_/A _07821_/C vssd1 vssd1 vccd1 vccd1 _08066_/B sky130_fd_sc_hd__nand3_1
XFILLER_0_19_61 vssd1 vssd1 vccd1 vccd1 sky130_ef_sc_hd__decap_12
XANTENNA__09092__B _10275_/B vssd1 vssd1 vccd1 vccd1 sky130_fd_sc_hd__diode_2
XFILLER_0_19_94 vssd1 vssd1 vccd1 vccd1 sky130_fd_sc_hd__fill_2
XANTENNA__10335__A_N _10334_/B vssd1 vssd1 vccd1 vccd1 sky130_fd_sc_hd__diode_2
X_07752_ _07919_/B _07945_/B _07751_/Y vssd1 vssd1 vccd1 vccd1 _07767_/A sky130_fd_sc_hd__a21oi_1
XANTENNA__10031__B _10201_/B vssd1 vssd1 vccd1 vccd1 sky130_fd_sc_hd__diode_2
X_07683_ _07689_/A _07690_/A _07689_/B vssd1 vssd1 vccd1 vccd1 _07800_/C sky130_fd_sc_hd__nand3_2
X_06703_ _10414_/B vssd1 vssd1 vccd1 vccd1 _10406_/B sky130_fd_sc_hd__inv_2
XANTENNA__09820__B _09835_/A vssd1 vssd1 vccd1 vccd1 sky130_fd_sc_hd__diode_2
X_09422_ _09422_/A _09598_/A vssd1 vssd1 vccd1 vccd1 _09424_/A sky130_fd_sc_hd__nand2_1
X_06634_ _06977_/C _06977_/B _06633_/Y vssd1 vssd1 vccd1 vccd1 _06968_/A sky130_fd_sc_hd__a21oi_1
XANTENNA__08717__A _08725_/A vssd1 vssd1 vccd1 vccd1 sky130_fd_sc_hd__diode_2
X_09353_ _09353_/A _09353_/B vssd1 vssd1 vccd1 vccd1 _09353_/Y sky130_fd_sc_hd__nor2_1
XFILLER_0_74_242 vssd1 vssd1 vccd1 vccd1 sky130_fd_sc_hd__fill_2
X_08304_ _08304_/A _08304_/B _08304_/C vssd1 vssd1 vccd1 vccd1 _08312_/A sky130_fd_sc_hd__or3_1
X_06565_ _06567_/A vssd1 vssd1 vccd1 vccd1 _06566_/B sky130_fd_sc_hd__inv_2
XFILLER_0_74_253 vssd1 vssd1 vccd1 vccd1 sky130_fd_sc_hd__fill_2
X_09284_ _09557_/B _09284_/B vssd1 vssd1 vccd1 vccd1 _09292_/A sky130_fd_sc_hd__nand2_1
XFILLER_0_62_415 vssd1 vssd1 vccd1 vccd1 sky130_fd_sc_hd__fill_1
XFILLER_0_47_489 vssd1 vssd1 vccd1 vccd1 sky130_ef_sc_hd__decap_12
XANTENNA__07340__B _10101_/A vssd1 vssd1 vccd1 vccd1 sky130_fd_sc_hd__diode_2
X_06496_ _06498_/B _06498_/C vssd1 vssd1 vccd1 vccd1 _06497_/A sky130_fd_sc_hd__nand2_1
X_05516_ _05515_/B _05954_/B _05516_/C vssd1 vssd1 vccd1 vccd1 _05954_/A sky130_fd_sc_hd__nand3b_1
XFILLER_0_74_297 vssd1 vssd1 vccd1 vccd1 sky130_fd_sc_hd__fill_1
XFILLER_0_74_286 vssd1 vssd1 vccd1 vccd1 sky130_fd_sc_hd__fill_1
X_08235_ _08372_/A _08373_/A vssd1 vssd1 vccd1 vccd1 _08235_/Y sky130_fd_sc_hd__nand2_1
X_05447_ _07891_/B input4/X vssd1 vssd1 vccd1 vccd1 _05454_/B sky130_fd_sc_hd__nand2_1
X_08166_ _08166_/A _08166_/B vssd1 vssd1 vccd1 vccd1 _08167_/A sky130_fd_sc_hd__nand2_1
X_05378_ _05518_/A _05518_/B vssd1 vssd1 vccd1 vccd1 _05384_/C sky130_fd_sc_hd__nand2_2
XANTENNA__08452__A input4/X vssd1 vssd1 vccd1 vccd1 sky130_fd_sc_hd__diode_2
XFILLER_0_15_397 vssd1 vssd1 vccd1 vccd1 sky130_fd_sc_hd__fill_2
X_07117_ _07117_/A _07117_/B vssd1 vssd1 vccd1 vccd1 _07427_/B sky130_fd_sc_hd__nand2_1
XFILLER_0_30_301 vssd1 vssd1 vccd1 vccd1 sky130_fd_sc_hd__decap_6
XFILLER_0_30_312 vssd1 vssd1 vccd1 vccd1 sky130_fd_sc_hd__decap_4
XANTENNA__09267__B _10247_/B vssd1 vssd1 vccd1 vccd1 sky130_fd_sc_hd__diode_2
XFILLER_0_70_492 vssd1 vssd1 vccd1 vccd1 sky130_fd_sc_hd__fill_1
X_08097_ _09710_/B _08337_/A vssd1 vssd1 vccd1 vccd1 _08100_/B sky130_fd_sc_hd__nand2_1
XANTENNA__08171__B _08171_/B vssd1 vssd1 vccd1 vccd1 sky130_fd_sc_hd__diode_2
X_07048_ _10247_/B _10158_/A vssd1 vssd1 vccd1 vccd1 _07211_/A sky130_fd_sc_hd__nand2_1
X_08999_ _08999_/A vssd1 vssd1 vccd1 vccd1 _09006_/A sky130_fd_sc_hd__inv_2
XFILLER_0_65_253 vssd1 vssd1 vccd1 vccd1 sky130_fd_sc_hd__decap_4
XFILLER_0_53_404 vssd1 vssd1 vccd1 vccd1 sky130_fd_sc_hd__fill_2
XFILLER_0_38_467 vssd1 vssd1 vccd1 vccd1 sky130_fd_sc_hd__fill_2
XFILLER_0_80_212 vssd1 vssd1 vccd1 vccd1 sky130_fd_sc_hd__fill_2
XANTENNA__05986__A _10211_/B vssd1 vssd1 vccd1 vccd1 sky130_fd_sc_hd__diode_2
XFILLER_0_53_459 vssd1 vssd1 vccd1 vccd1 sky130_fd_sc_hd__fill_2
XFILLER_0_40_109 vssd1 vssd1 vccd1 vccd1 sky130_fd_sc_hd__fill_1
XFILLER_0_21_345 vssd1 vssd1 vccd1 vccd1 sky130_fd_sc_hd__fill_2
X_10326_ _10087_/C _10087_/B _10079_/A vssd1 vssd1 vccd1 vccd1 _10329_/B sky130_fd_sc_hd__a21oi_1
XTAP_507 vssd1 vccd1 sky130_fd_sc_hd__tapvpwrvgnd_1
X_10257_ _10256_/B _10257_/B _10257_/C vssd1 vssd1 vccd1 vccd1 _10263_/C sky130_fd_sc_hd__nand3b_1
XTAP_518 vssd1 vccd1 sky130_fd_sc_hd__tapvpwrvgnd_1
XTAP_529 vssd1 vccd1 sky130_fd_sc_hd__tapvpwrvgnd_1
X_10188_ _10188_/A _10188_/B _10188_/C _10188_/D vssd1 vssd1 vccd1 vccd1 _10190_/A
+ sky130_fd_sc_hd__or4_1
XFILLER_0_56_231 vssd1 vssd1 vccd1 vccd1 sky130_fd_sc_hd__fill_1
XFILLER_0_8_306 vssd1 vssd1 vccd1 vccd1 sky130_fd_sc_hd__fill_2
XFILLER_0_56_253 vssd1 vssd1 vccd1 vccd1 sky130_fd_sc_hd__decap_8
XFILLER_0_8_339 vssd1 vssd1 vccd1 vccd1 sky130_ef_sc_hd__decap_12
X_06350_ _06546_/B _06545_/A vssd1 vssd1 vccd1 vccd1 _06549_/C sky130_fd_sc_hd__nand2_1
X_06281_ _06283_/A _06281_/B vssd1 vssd1 vccd1 vccd1 _06282_/B sky130_fd_sc_hd__nand2_1
XFILLER_0_71_256 vssd1 vssd1 vccd1 vccd1 sky130_fd_sc_hd__fill_1
X_08020_ input1/X _10129_/A vssd1 vssd1 vccd1 vccd1 _08021_/C sky130_fd_sc_hd__nand2_1
XFILLER_0_71_278 vssd1 vssd1 vccd1 vccd1 sky130_fd_sc_hd__fill_2
XFILLER_0_12_312 vssd1 vssd1 vccd1 vccd1 sky130_fd_sc_hd__decap_3
X_09971_ _09971_/A _09971_/B _09971_/C vssd1 vssd1 vccd1 vccd1 _09972_/A sky130_fd_sc_hd__nor3_1
X_08922_ _08927_/B _08927_/A vssd1 vssd1 vccd1 vccd1 _08925_/B sky130_fd_sc_hd__nor2_1
X_08853_ _09268_/A _10276_/D _08852_/C vssd1 vssd1 vccd1 vccd1 _08854_/A sky130_fd_sc_hd__o21ai_1
XFILLER_0_34_3 vssd1 vssd1 vccd1 vccd1 sky130_fd_sc_hd__fill_2
X_08784_ _09710_/B vssd1 vssd1 vccd1 vccd1 _10248_/D sky130_fd_sc_hd__inv_2
XANTENNA__10042__A input46/X vssd1 vssd1 vccd1 vccd1 sky130_fd_sc_hd__diode_2
X_05996_ _05996_/A _05996_/B vssd1 vssd1 vccd1 vccd1 _05997_/B sky130_fd_sc_hd__nand2_1
X_07804_ _07804_/A _07804_/B vssd1 vssd1 vccd1 vccd1 _07943_/C sky130_fd_sc_hd__nand2_1
XANTENNA__07335__B _09677_/A vssd1 vssd1 vccd1 vccd1 sky130_fd_sc_hd__diode_2
XFILLER_0_79_323 vssd1 vssd1 vccd1 vccd1 sky130_fd_sc_hd__decap_4
X_07735_ _07735_/A _07735_/B vssd1 vssd1 vccd1 vccd1 _07736_/C sky130_fd_sc_hd__nand2_1