* NGSPICE file created from mac_piped.ext - technology: sky130A

* Black-box entry subcircuit for sky130_fd_sc_hd__decap_6 abstract view
.subckt sky130_fd_sc_hd__decap_6 VGND VNB VPB VPWR
.ends

* Black-box entry subcircuit for sky130_fd_sc_hd__nand3_1 abstract view
.subckt sky130_fd_sc_hd__nand3_1 A B C VGND VNB VPB VPWR Y
.ends

* Black-box entry subcircuit for sky130_fd_sc_hd__nand2_1 abstract view
.subckt sky130_fd_sc_hd__nand2_1 A B VGND VNB VPB VPWR Y
.ends

* Black-box entry subcircuit for sky130_ef_sc_hd__decap_12 abstract view
.subckt sky130_ef_sc_hd__decap_12 VGND VNB VPB VPWR
.ends

* Black-box entry subcircuit for sky130_fd_sc_hd__decap_8 abstract view
.subckt sky130_fd_sc_hd__decap_8 VGND VNB VPB VPWR
.ends

* Black-box entry subcircuit for sky130_fd_sc_hd__inv_2 abstract view
.subckt sky130_fd_sc_hd__inv_2 A VGND VNB VPB VPWR Y
.ends

* Black-box entry subcircuit for sky130_fd_sc_hd__nand2b_1 abstract view
.subckt sky130_fd_sc_hd__nand2b_1 A_N B VGND VNB VPB VPWR Y
.ends

* Black-box entry subcircuit for sky130_fd_sc_hd__fill_2 abstract view
.subckt sky130_fd_sc_hd__fill_2 VGND VNB VPB VPWR
.ends

* Black-box entry subcircuit for sky130_fd_sc_hd__a21o_1 abstract view
.subckt sky130_fd_sc_hd__a21o_1 A1 A2 B1 VGND VNB VPB VPWR X
.ends

* Black-box entry subcircuit for sky130_fd_sc_hd__a21boi_1 abstract view
.subckt sky130_fd_sc_hd__a21boi_1 A1 A2 B1_N VGND VNB VPB VPWR Y
.ends

* Black-box entry subcircuit for sky130_fd_sc_hd__fill_1 abstract view
.subckt sky130_fd_sc_hd__fill_1 VGND VNB VPB VPWR
.ends

* Black-box entry subcircuit for sky130_fd_sc_hd__nor2_1 abstract view
.subckt sky130_fd_sc_hd__nor2_1 A B VGND VNB VPB VPWR Y
.ends

* Black-box entry subcircuit for sky130_fd_sc_hd__decap_3 abstract view
.subckt sky130_fd_sc_hd__decap_3 VGND VNB VPB VPWR
.ends

* Black-box entry subcircuit for sky130_fd_sc_hd__o21ai_1 abstract view
.subckt sky130_fd_sc_hd__o21ai_1 A1 A2 B1 VGND VNB VPB VPWR Y
.ends

* Black-box entry subcircuit for sky130_fd_sc_hd__nand2_2 abstract view
.subckt sky130_fd_sc_hd__nand2_2 A B VGND VNB VPB VPWR Y
.ends

* Black-box entry subcircuit for sky130_fd_sc_hd__diode_2 abstract view
.subckt sky130_fd_sc_hd__diode_2 DIODE VGND VNB VPB VPWR
.ends

* Black-box entry subcircuit for sky130_fd_sc_hd__decap_4 abstract view
.subckt sky130_fd_sc_hd__decap_4 VGND VNB VPB VPWR
.ends

* Black-box entry subcircuit for sky130_fd_sc_hd__clkbuf_8 abstract view
.subckt sky130_fd_sc_hd__clkbuf_8 A VGND VNB VPB VPWR X
.ends

* Black-box entry subcircuit for sky130_fd_sc_hd__a22o_1 abstract view
.subckt sky130_fd_sc_hd__a22o_1 A1 A2 B1 B2 VGND VNB VPB VPWR X
.ends

* Black-box entry subcircuit for sky130_fd_sc_hd__a21oi_2 abstract view
.subckt sky130_fd_sc_hd__a21oi_2 A1 A2 B1 VGND VNB VPB VPWR Y
.ends

* Black-box entry subcircuit for sky130_fd_sc_hd__tapvpwrvgnd_1 abstract view
.subckt sky130_fd_sc_hd__tapvpwrvgnd_1 VGND VPWR
.ends

* Black-box entry subcircuit for sky130_fd_sc_hd__a21oi_1 abstract view
.subckt sky130_fd_sc_hd__a21oi_1 A1 A2 B1 VGND VNB VPB VPWR Y
.ends

* Black-box entry subcircuit for sky130_fd_sc_hd__dfrtp_2 abstract view
.subckt sky130_fd_sc_hd__dfrtp_2 CLK D RESET_B VGND VNB VPB VPWR Q
.ends

* Black-box entry subcircuit for sky130_fd_sc_hd__or2b_1 abstract view
.subckt sky130_fd_sc_hd__or2b_1 A B_N VGND VNB VPB VPWR X
.ends

* Black-box entry subcircuit for sky130_fd_sc_hd__or2_1 abstract view
.subckt sky130_fd_sc_hd__or2_1 A B VGND VNB VPB VPWR X
.ends

* Black-box entry subcircuit for sky130_fd_sc_hd__a21boi_2 abstract view
.subckt sky130_fd_sc_hd__a21boi_2 A1 A2 B1_N VGND VNB VPB VPWR Y
.ends

* Black-box entry subcircuit for sky130_fd_sc_hd__clkbuf_1 abstract view
.subckt sky130_fd_sc_hd__clkbuf_1 A VGND VNB VPB VPWR X
.ends

* Black-box entry subcircuit for sky130_fd_sc_hd__nand3b_1 abstract view
.subckt sky130_fd_sc_hd__nand3b_1 A_N B C VGND VNB VPB VPWR Y
.ends

* Black-box entry subcircuit for sky130_fd_sc_hd__nor3_1 abstract view
.subckt sky130_fd_sc_hd__nor3_1 A B C VGND VNB VPB VPWR Y
.ends

* Black-box entry subcircuit for sky130_fd_sc_hd__xor2_1 abstract view
.subckt sky130_fd_sc_hd__xor2_1 A B VGND VNB VPB VPWR X
.ends

* Black-box entry subcircuit for sky130_fd_sc_hd__nand3_2 abstract view
.subckt sky130_fd_sc_hd__nand3_2 A B C VGND VNB VPB VPWR Y
.ends

* Black-box entry subcircuit for sky130_fd_sc_hd__dlygate4sd3_1 abstract view
.subckt sky130_fd_sc_hd__dlygate4sd3_1 A VGND VNB VPB VPWR X
.ends

* Black-box entry subcircuit for sky130_fd_sc_hd__xnor2_1 abstract view
.subckt sky130_fd_sc_hd__xnor2_1 A B VGND VNB VPB VPWR Y
.ends

* Black-box entry subcircuit for sky130_fd_sc_hd__buf_12 abstract view
.subckt sky130_fd_sc_hd__buf_12 A VGND VNB VPB VPWR X
.ends

* Black-box entry subcircuit for sky130_fd_sc_hd__o21ai_2 abstract view
.subckt sky130_fd_sc_hd__o21ai_2 A1 A2 B1 VGND VNB VPB VPWR Y
.ends

* Black-box entry subcircuit for sky130_fd_sc_hd__nand3b_4 abstract view
.subckt sky130_fd_sc_hd__nand3b_4 A_N B C VGND VNB VPB VPWR Y
.ends

* Black-box entry subcircuit for sky130_fd_sc_hd__buf_6 abstract view
.subckt sky130_fd_sc_hd__buf_6 A VGND VNB VPB VPWR X
.ends

* Black-box entry subcircuit for sky130_fd_sc_hd__and4_1 abstract view
.subckt sky130_fd_sc_hd__and4_1 A B C D VGND VNB VPB VPWR X
.ends

* Black-box entry subcircuit for sky130_fd_sc_hd__a2111o_1 abstract view
.subckt sky130_fd_sc_hd__a2111o_1 A1 A2 B1 C1 D1 VGND VNB VPB VPWR X
.ends

* Black-box entry subcircuit for sky130_fd_sc_hd__nor2_2 abstract view
.subckt sky130_fd_sc_hd__nor2_2 A B VGND VNB VPB VPWR Y
.ends

* Black-box entry subcircuit for sky130_fd_sc_hd__a31o_1 abstract view
.subckt sky130_fd_sc_hd__a31o_1 A1 A2 A3 B1 VGND VNB VPB VPWR X
.ends

* Black-box entry subcircuit for sky130_fd_sc_hd__and2_1 abstract view
.subckt sky130_fd_sc_hd__and2_1 A B VGND VNB VPB VPWR X
.ends

* Black-box entry subcircuit for sky130_fd_sc_hd__nor2b_1 abstract view
.subckt sky130_fd_sc_hd__nor2b_1 A B_N VGND VNB VPB VPWR Y
.ends

* Black-box entry subcircuit for sky130_fd_sc_hd__or4b_1 abstract view
.subckt sky130_fd_sc_hd__or4b_1 A B C D_N VGND VNB VPB VPWR X
.ends

* Black-box entry subcircuit for sky130_fd_sc_hd__a31oi_1 abstract view
.subckt sky130_fd_sc_hd__a31oi_1 A1 A2 A3 B1 VGND VNB VPB VPWR Y
.ends

* Black-box entry subcircuit for sky130_fd_sc_hd__and2b_1 abstract view
.subckt sky130_fd_sc_hd__and2b_1 A_N B VGND VNB VPB VPWR X
.ends

* Black-box entry subcircuit for sky130_fd_sc_hd__buf_8 abstract view
.subckt sky130_fd_sc_hd__buf_8 A VGND VNB VPB VPWR X
.ends

* Black-box entry subcircuit for sky130_fd_sc_hd__nand3b_2 abstract view
.subckt sky130_fd_sc_hd__nand3b_2 A_N B C VGND VNB VPB VPWR Y
.ends

* Black-box entry subcircuit for sky130_fd_sc_hd__dfrtp_1 abstract view
.subckt sky130_fd_sc_hd__dfrtp_1 CLK D RESET_B VGND VNB VPB VPWR Q
.ends

* Black-box entry subcircuit for sky130_fd_sc_hd__a21oi_4 abstract view
.subckt sky130_fd_sc_hd__a21oi_4 A1 A2 B1 VGND VNB VPB VPWR Y
.ends

* Black-box entry subcircuit for sky130_fd_sc_hd__or3_1 abstract view
.subckt sky130_fd_sc_hd__or3_1 A B C VGND VNB VPB VPWR X
.ends

* Black-box entry subcircuit for sky130_fd_sc_hd__o21a_1 abstract view
.subckt sky130_fd_sc_hd__o21a_1 A1 A2 B1 VGND VNB VPB VPWR X
.ends

* Black-box entry subcircuit for sky130_fd_sc_hd__nor3_2 abstract view
.subckt sky130_fd_sc_hd__nor3_2 A B C VGND VNB VPB VPWR Y
.ends

* Black-box entry subcircuit for sky130_fd_sc_hd__inv_4 abstract view
.subckt sky130_fd_sc_hd__inv_4 A VGND VNB VPB VPWR Y
.ends

* Black-box entry subcircuit for sky130_fd_sc_hd__or2_2 abstract view
.subckt sky130_fd_sc_hd__or2_2 A B VGND VNB VPB VPWR X
.ends

* Black-box entry subcircuit for sky130_fd_sc_hd__o21a_2 abstract view
.subckt sky130_fd_sc_hd__o21a_2 A1 A2 B1 VGND VNB VPB VPWR X
.ends

* Black-box entry subcircuit for sky130_fd_sc_hd__clkinv_4 abstract view
.subckt sky130_fd_sc_hd__clkinv_4 A VGND VNB VPB VPWR Y
.ends

* Black-box entry subcircuit for sky130_fd_sc_hd__o31ai_2 abstract view
.subckt sky130_fd_sc_hd__o31ai_2 A1 A2 A3 B1 VGND VNB VPB VPWR Y
.ends

* Black-box entry subcircuit for sky130_fd_sc_hd__xor2_2 abstract view
.subckt sky130_fd_sc_hd__xor2_2 A B VGND VNB VPB VPWR X
.ends

* Black-box entry subcircuit for sky130_fd_sc_hd__buf_1 abstract view
.subckt sky130_fd_sc_hd__buf_1 A VGND VNB VPB VPWR X
.ends

* Black-box entry subcircuit for sky130_fd_sc_hd__o221a_1 abstract view
.subckt sky130_fd_sc_hd__o221a_1 A1 A2 B1 B2 C1 VGND VNB VPB VPWR X
.ends

* Black-box entry subcircuit for sky130_fd_sc_hd__clkbuf_16 abstract view
.subckt sky130_fd_sc_hd__clkbuf_16 A VGND VNB VPB VPWR X
.ends

* Black-box entry subcircuit for sky130_fd_sc_hd__clkbuf_4 abstract view
.subckt sky130_fd_sc_hd__clkbuf_4 A VGND VNB VPB VPWR X
.ends

* Black-box entry subcircuit for sky130_fd_sc_hd__or4_1 abstract view
.subckt sky130_fd_sc_hd__or4_1 A B C D VGND VNB VPB VPWR X
.ends

* Black-box entry subcircuit for sky130_fd_sc_hd__buf_4 abstract view
.subckt sky130_fd_sc_hd__buf_4 A VGND VNB VPB VPWR X
.ends

* Black-box entry subcircuit for sky130_fd_sc_hd__and3_1 abstract view
.subckt sky130_fd_sc_hd__and3_1 A B C VGND VNB VPB VPWR X
.ends

* Black-box entry subcircuit for sky130_fd_sc_hd__a21bo_1 abstract view
.subckt sky130_fd_sc_hd__a21bo_1 A1 A2 B1_N VGND VNB VPB VPWR X
.ends

* Black-box entry subcircuit for sky130_fd_sc_hd__a221oi_2 abstract view
.subckt sky130_fd_sc_hd__a221oi_2 A1 A2 B1 B2 C1 VGND VNB VPB VPWR Y
.ends

* Black-box entry subcircuit for sky130_fd_sc_hd__o21ba_1 abstract view
.subckt sky130_fd_sc_hd__o21ba_1 A1 A2 B1_N VGND VNB VPB VPWR X
.ends

* Black-box entry subcircuit for sky130_fd_sc_hd__o21bai_1 abstract view
.subckt sky130_fd_sc_hd__o21bai_1 A1 A2 B1_N VGND VNB VPB VPWR Y
.ends

* Black-box entry subcircuit for sky130_fd_sc_hd__buf_2 abstract view
.subckt sky130_fd_sc_hd__buf_2 A VGND VNB VPB VPWR X
.ends

* Black-box entry subcircuit for sky130_fd_sc_hd__clkbuf_2 abstract view
.subckt sky130_fd_sc_hd__clkbuf_2 A VGND VNB VPB VPWR X
.ends

* Black-box entry subcircuit for sky130_fd_sc_hd__dlymetal6s2s_1 abstract view
.subckt sky130_fd_sc_hd__dlymetal6s2s_1 A VGND VNB VPB VPWR X
.ends

* Black-box entry subcircuit for sky130_fd_sc_hd__nand3_4 abstract view
.subckt sky130_fd_sc_hd__nand3_4 A B C VGND VNB VPB VPWR Y
.ends

* Black-box entry subcircuit for sky130_fd_sc_hd__or4_2 abstract view
.subckt sky130_fd_sc_hd__or4_2 A B C D VGND VNB VPB VPWR X
.ends

.subckt mac_piped a_i[0] a_i[10] a_i[11] a_i[12] a_i[13] a_i[14] a_i[15] a_i[16] a_i[17]
+ a_i[18] a_i[19] a_i[1] a_i[20] a_i[21] a_i[22] a_i[23] a_i[24] a_i[25] a_i[26] a_i[27]
+ a_i[28] a_i[29] a_i[2] a_i[30] a_i[31] a_i[3] a_i[4] a_i[5] a_i[6] a_i[7] a_i[8]
+ a_i[9] b_i[0] b_i[10] b_i[11] b_i[12] b_i[13] b_i[14] b_i[15] b_i[16] b_i[17] b_i[18]
+ b_i[19] b_i[1] b_i[20] b_i[21] b_i[22] b_i[23] b_i[24] b_i[25] b_i[26] b_i[27] b_i[28]
+ b_i[29] b_i[2] b_i[30] b_i[31] b_i[3] b_i[4] b_i[5] b_i[6] b_i[7] b_i[8] b_i[9]
+ clk nrst vccd1 vssd1 y_o[0] y_o[10] y_o[11] y_o[12] y_o[13] y_o[14] y_o[15] y_o[16]
+ y_o[17] y_o[18] y_o[19] y_o[1] y_o[20] y_o[21] y_o[22] y_o[23] y_o[24] y_o[25] y_o[26]
+ y_o[27] y_o[28] y_o[29] y_o[2] y_o[30] y_o[31] y_o[3] y_o[4] y_o[5] y_o[6] y_o[7]
+ y_o[8] y_o[9]
XFILLER_0_94_77 vssd1 vssd1 vccd1 vccd1 sky130_fd_sc_hd__decap_6
X_05903_ _05903_/A _05903_/B _05903_/C vssd1 vssd1 vccd1 vccd1 _05906_/B sky130_fd_sc_hd__nand3_1
X_09671_ _09671_/A _09671_/B vssd1 vssd1 vccd1 vccd1 _09675_/B sky130_fd_sc_hd__nand2_1
X_06883_ _06883_/A _06884_/A vssd1 vssd1 vccd1 vccd1 _06886_/A sky130_fd_sc_hd__nand2_1
XFILLER_0_27_71 vssd1 vssd1 vccd1 vccd1 sky130_ef_sc_hd__decap_12
X_08622_ _08624_/B _08886_/C vssd1 vssd1 vccd1 vccd1 _08623_/A sky130_fd_sc_hd__nand2_1
X_05834_ input5/X _08688_/A vssd1 vssd1 vccd1 vccd1 _05948_/B sky130_fd_sc_hd__nand2_1
XFILLER_0_77_601 vssd1 vssd1 vccd1 vccd1 sky130_fd_sc_hd__decap_8
X_08553_ _08557_/C vssd1 vssd1 vccd1 vccd1 _08553_/Y sky130_fd_sc_hd__inv_2
X_05765_ _05766_/B _05765_/B vssd1 vssd1 vccd1 vccd1 _05787_/A sky130_fd_sc_hd__nand2b_1
XFILLER_0_89_494 vssd1 vssd1 vccd1 vccd1 sky130_fd_sc_hd__fill_2
X_08484_ _08737_/B _08485_/C _08485_/B vssd1 vssd1 vccd1 vccd1 _08490_/B sky130_fd_sc_hd__a21o_1
XFILLER_0_9_400 vssd1 vssd1 vccd1 vccd1 sky130_ef_sc_hd__decap_12
X_07504_ _07540_/C _07571_/A _07571_/B vssd1 vssd1 vccd1 vccd1 _07539_/A sky130_fd_sc_hd__a21boi_1
XFILLER_0_64_317 vssd1 vssd1 vccd1 vccd1 sky130_ef_sc_hd__decap_12
XFILLER_0_64_306 vssd1 vssd1 vccd1 vccd1 sky130_fd_sc_hd__fill_2
X_05696_ _06175_/B _05696_/B vssd1 vssd1 vccd1 vccd1 _05729_/B sky130_fd_sc_hd__nand2_1
XFILLER_0_43_81 vssd1 vssd1 vccd1 vccd1 sky130_fd_sc_hd__decap_8
X_07435_ _09854_/B _10000_/A vssd1 vssd1 vccd1 vccd1 _07440_/B sky130_fd_sc_hd__nand2_1
XFILLER_0_37_509 vssd1 vssd1 vccd1 vccd1 sky130_ef_sc_hd__decap_12
XFILLER_0_91_125 vssd1 vssd1 vccd1 vccd1 sky130_ef_sc_hd__decap_12
XFILLER_0_57_380 vssd1 vssd1 vccd1 vccd1 sky130_fd_sc_hd__fill_1
X_07366_ _07366_/A _07366_/B vssd1 vssd1 vccd1 vccd1 _07366_/Y sky130_fd_sc_hd__nor2_1
X_09105_ _09108_/B _09406_/B vssd1 vssd1 vccd1 vccd1 _09107_/A sky130_fd_sc_hd__nand2_1
XFILLER_0_45_597 vssd1 vssd1 vccd1 vccd1 sky130_fd_sc_hd__decap_8
X_06317_ _06330_/B _05954_/Y _05955_/Y vssd1 vssd1 vccd1 vccd1 _06318_/B sky130_fd_sc_hd__a21o_1
XFILLER_0_17_266 vssd1 vssd1 vccd1 vccd1 sky130_fd_sc_hd__fill_2
XFILLER_0_17_277 vssd1 vssd1 vccd1 vccd1 sky130_fd_sc_hd__decap_3
X_07297_ _09951_/A _08862_/B vssd1 vssd1 vccd1 vccd1 _07298_/A sky130_fd_sc_hd__nand2_1
X_09036_ _09083_/A _10084_/D _09035_/C vssd1 vssd1 vccd1 vccd1 _09037_/A sky130_fd_sc_hd__o21ai_1
XFILLER_0_60_556 vssd1 vssd1 vccd1 vccd1 sky130_fd_sc_hd__fill_1
X_06248_ _09720_/B _09485_/C vssd1 vssd1 vccd1 vccd1 _06696_/B sky130_fd_sc_hd__nand2_2
XFILLER_0_60_589 vssd1 vssd1 vccd1 vccd1 sky130_fd_sc_hd__decap_6
XFILLER_0_60_578 vssd1 vssd1 vccd1 vccd1 sky130_fd_sc_hd__decap_8
XFILLER_0_4_193 vssd1 vssd1 vccd1 vccd1 sky130_fd_sc_hd__decap_3
XANTENNA__09211__B2 _09560_/B vssd1 vssd1 vccd1 vccd1 sky130_fd_sc_hd__diode_2
XANTENNA__09211__A1 input46/X vssd1 vssd1 vccd1 vccd1 sky130_fd_sc_hd__diode_2
X_06179_ _06179_/A _06179_/B _06179_/C vssd1 vssd1 vccd1 vccd1 _06180_/B sky130_fd_sc_hd__nand3_1
X_09938_ _09938_/A _09938_/B vssd1 vssd1 vccd1 vccd1 _09939_/A sky130_fd_sc_hd__nand2_1
XANTENNA__06411__B _09951_/B vssd1 vssd1 vccd1 vccd1 sky130_fd_sc_hd__diode_2
XFILLER_0_99_225 vssd1 vssd1 vccd1 vccd1 sky130_fd_sc_hd__decap_3
XFILLER_0_99_214 vssd1 vssd1 vccd1 vccd1 sky130_fd_sc_hd__decap_8
X_09869_ _09869_/A _09869_/B _10100_/B vssd1 vssd1 vccd1 vccd1 _10100_/A sky130_fd_sc_hd__nand3_1
XANTENNA__09722__B _10051_/A vssd1 vssd1 vccd1 vccd1 sky130_fd_sc_hd__diode_2
XFILLER_0_68_623 vssd1 vssd1 vccd1 vccd1 sky130_fd_sc_hd__fill_2
XFILLER_0_67_111 vssd1 vssd1 vccd1 vccd1 sky130_fd_sc_hd__fill_1
XFILLER_0_83_615 vssd1 vssd1 vccd1 vccd1 sky130_fd_sc_hd__fill_1
XANTENNA__06139__A _09199_/A vssd1 vssd1 vccd1 vccd1 sky130_fd_sc_hd__diode_2
XFILLER_0_70_309 vssd1 vssd1 vccd1 vccd1 sky130_ef_sc_hd__decap_12
XFILLER_0_36_542 vssd1 vssd1 vccd1 vccd1 sky130_fd_sc_hd__decap_4
XFILLER_0_63_372 vssd1 vssd1 vccd1 vccd1 sky130_ef_sc_hd__decap_12
XFILLER_0_63_361 vssd1 vssd1 vccd1 vccd1 sky130_fd_sc_hd__fill_1
XFILLER_0_51_512 vssd1 vssd1 vccd1 vccd1 sky130_ef_sc_hd__decap_12
XFILLER_0_51_501 vssd1 vssd1 vccd1 vccd1 sky130_fd_sc_hd__decap_3
XFILLER_0_36_586 vssd1 vssd1 vccd1 vccd1 sky130_fd_sc_hd__fill_2
XFILLER_0_90_180 vssd1 vssd1 vccd1 vccd1 sky130_fd_sc_hd__decap_8
XFILLER_0_23_225 vssd1 vssd1 vccd1 vccd1 sky130_fd_sc_hd__decap_6
XFILLER_0_11_409 vssd1 vssd1 vccd1 vccd1 sky130_fd_sc_hd__fill_2
XFILLER_0_64_25 vssd1 vssd1 vccd1 vccd1 sky130_fd_sc_hd__decap_3
XFILLER_0_3_39 vssd1 vssd1 vccd1 vccd1 sky130_ef_sc_hd__decap_12
X_10009_ _10010_/A _10010_/C _10010_/B vssd1 vssd1 vccd1 vccd1 _10013_/A sky130_fd_sc_hd__a21o_1
XFILLER_0_59_623 vssd1 vssd1 vccd1 vccd1 sky130_fd_sc_hd__fill_2
XANTENNA__07433__A _09601_/B vssd1 vssd1 vccd1 vccd1 sky130_fd_sc_hd__diode_2
XFILLER_0_98_291 vssd1 vssd1 vccd1 vccd1 sky130_fd_sc_hd__decap_3
XANTENNA__08248__B _08248_/B vssd1 vssd1 vccd1 vccd1 sky130_fd_sc_hd__diode_2
X_05550_ _05550_/A _05551_/A vssd1 vssd1 vccd1 vccd1 _05562_/A sky130_fd_sc_hd__nand2_1
XFILLER_0_86_464 vssd1 vssd1 vccd1 vccd1 sky130_fd_sc_hd__fill_2
XFILLER_0_86_453 vssd1 vssd1 vccd1 vccd1 sky130_fd_sc_hd__decap_8
XFILLER_0_80_57 vssd1 vssd1 vccd1 vccd1 sky130_fd_sc_hd__decap_6
XFILLER_0_74_604 vssd1 vssd1 vccd1 vccd1 sky130_fd_sc_hd__fill_2
XFILLER_0_86_497 vssd1 vssd1 vccd1 vccd1 sky130_fd_sc_hd__fill_2
X_05481_ input38/X vssd1 vssd1 vccd1 vccd1 _09960_/A sky130_fd_sc_hd__clkbuf_8
XFILLER_0_13_40 vssd1 vssd1 vccd1 vccd1 sky130_fd_sc_hd__fill_1
XFILLER_0_73_169 vssd1 vssd1 vccd1 vccd1 sky130_fd_sc_hd__fill_1
XFILLER_0_73_147 vssd1 vssd1 vccd1 vccd1 sky130_fd_sc_hd__fill_2
XFILLER_0_73_136 vssd1 vssd1 vccd1 vccd1 sky130_fd_sc_hd__decap_8
XFILLER_0_6_425 vssd1 vssd1 vccd1 vccd1 sky130_fd_sc_hd__fill_1
X_07220_ _07220_/A _07221_/A vssd1 vssd1 vccd1 vccd1 _07223_/A sky130_fd_sc_hd__nand2_1
XFILLER_0_39_391 vssd1 vssd1 vccd1 vccd1 sky130_fd_sc_hd__fill_1
XFILLER_0_54_350 vssd1 vssd1 vccd1 vccd1 sky130_fd_sc_hd__fill_2
XFILLER_0_13_95 vssd1 vssd1 vccd1 vccd1 sky130_ef_sc_hd__decap_12
X_07151_ _07151_/A _07151_/B vssd1 vssd1 vccd1 vccd1 _07706_/B sky130_fd_sc_hd__nand2_1
XFILLER_0_89_55 vssd1 vssd1 vccd1 vccd1 sky130_fd_sc_hd__fill_1
XFILLER_0_81_191 vssd1 vssd1 vccd1 vccd1 sky130_fd_sc_hd__fill_2
XFILLER_0_42_545 vssd1 vssd1 vccd1 vccd1 sky130_fd_sc_hd__decap_8
X_06102_ _06402_/A _06404_/A _06103_/B vssd1 vssd1 vccd1 vccd1 _06183_/A sky130_fd_sc_hd__nand3_1
XFILLER_0_14_225 vssd1 vssd1 vccd1 vccd1 sky130_ef_sc_hd__decap_12
XFILLER_0_42_589 vssd1 vssd1 vccd1 vccd1 sky130_fd_sc_hd__decap_6
X_07082_ _07082_/A _07082_/B _07082_/C vssd1 vssd1 vccd1 vccd1 _07083_/B sky130_fd_sc_hd__nand3_1
X_06033_ _10026_/B _09998_/A vssd1 vssd1 vccd1 vccd1 _06034_/B sky130_fd_sc_hd__nand2_1
X_07984_ _07984_/A _08091_/B vssd1 vssd1 vccd1 vccd1 _08087_/A sky130_fd_sc_hd__nand2_1
XFILLER_0_38_81 vssd1 vssd1 vccd1 vccd1 sky130_fd_sc_hd__decap_3
X_09723_ input46/X _10051_/B _10051_/A _10050_/B vssd1 vssd1 vccd1 vccd1 _09723_/X
+ sky130_fd_sc_hd__a22o_1
X_06935_ _07090_/A _07090_/C vssd1 vssd1 vccd1 vccd1 _06940_/A sky130_fd_sc_hd__nand2_1
X_09654_ _09654_/A _09655_/A vssd1 vssd1 vccd1 vccd1 _09661_/B sky130_fd_sc_hd__nand2_1
X_06866_ _07024_/B _07024_/C vssd1 vssd1 vccd1 vccd1 _07023_/A sky130_fd_sc_hd__nand2_1
XFILLER_0_96_228 vssd1 vssd1 vccd1 vccd1 sky130_fd_sc_hd__decap_8
X_08605_ _08603_/Y _08381_/B _08604_/Y vssd1 vssd1 vccd1 vccd1 _08628_/A sky130_fd_sc_hd__a21oi_2
X_05817_ _05817_/A vssd1 vssd1 vccd1 vccd1 _05824_/B sky130_fd_sc_hd__inv_2
X_09585_ _09585_/A _09586_/A vssd1 vssd1 vccd1 vccd1 _09589_/A sky130_fd_sc_hd__nand2_1
XTAP_1129 vssd1 vccd1 sky130_fd_sc_hd__tapvpwrvgnd_1
XTAP_1118 vssd1 vccd1 sky130_fd_sc_hd__tapvpwrvgnd_1
XTAP_1107 vssd1 vccd1 sky130_fd_sc_hd__tapvpwrvgnd_1
XFILLER_0_49_111 vssd1 vssd1 vccd1 vccd1 sky130_fd_sc_hd__fill_1
X_06797_ _06797_/A _06797_/B vssd1 vssd1 vccd1 vccd1 _06843_/C sky130_fd_sc_hd__nand2_1
XFILLER_0_77_475 vssd1 vssd1 vccd1 vccd1 sky130_ef_sc_hd__decap_12
X_08536_ _08540_/A _08540_/B vssd1 vssd1 vccd1 vccd1 _08538_/A sky130_fd_sc_hd__nand2_1
X_05748_ _05748_/A _05748_/B vssd1 vssd1 vccd1 vccd1 _05886_/C sky130_fd_sc_hd__nand2_1
X_08467_ _08467_/A _08467_/B _08467_/C vssd1 vssd1 vccd1 vccd1 _08468_/B sky130_fd_sc_hd__nand3_1
XANTENNA__07997__B _09980_/A vssd1 vssd1 vccd1 vccd1 sky130_fd_sc_hd__diode_2
X_05679_ _05448_/C _05448_/B _05678_/Y vssd1 vssd1 vccd1 vccd1 _06107_/A sky130_fd_sc_hd__a21oi_1
XFILLER_0_37_328 vssd1 vssd1 vccd1 vccd1 sky130_fd_sc_hd__fill_2
XFILLER_0_92_445 vssd1 vssd1 vccd1 vccd1 sky130_ef_sc_hd__decap_12
X_08398_ _08620_/B _08398_/B vssd1 vssd1 vccd1 vccd1 _08401_/B sky130_fd_sc_hd__nand2_1
X_07418_ _07418_/A _07418_/B _07418_/C vssd1 vssd1 vccd1 vccd1 _07419_/B sky130_fd_sc_hd__nand3_1
XFILLER_0_92_489 vssd1 vssd1 vccd1 vccd1 sky130_fd_sc_hd__decap_4
XFILLER_0_45_361 vssd1 vssd1 vccd1 vccd1 sky130_fd_sc_hd__decap_4
X_07349_ _07349_/A _07349_/B vssd1 vssd1 vccd1 vccd1 _07352_/A sky130_fd_sc_hd__nand2_1
XFILLER_0_33_512 vssd1 vssd1 vccd1 vccd1 sky130_fd_sc_hd__fill_2
XFILLER_0_72_180 vssd1 vssd1 vccd1 vccd1 sky130_fd_sc_hd__fill_1
XFILLER_0_60_331 vssd1 vssd1 vccd1 vccd1 sky130_ef_sc_hd__decap_12
X_10360_ _10360_/A hold60/X vssd1 vssd1 vccd1 vccd1 _10365_/A sky130_fd_sc_hd__nand2_1
X_09019_ _09046_/B _09046_/C vssd1 vssd1 vccd1 vccd1 _09045_/A sky130_fd_sc_hd__nand2_1
XFILLER_0_60_397 vssd1 vssd1 vccd1 vccd1 sky130_fd_sc_hd__fill_2
XFILLER_0_60_386 vssd1 vssd1 vccd1 vccd1 sky130_fd_sc_hd__decap_4
X_10291_ _10495_/Q hold113/X vssd1 vssd1 vccd1 vccd1 hold114/A sky130_fd_sc_hd__nand2_1
XFILLER_0_20_239 vssd1 vssd1 vccd1 vccd1 sky130_fd_sc_hd__fill_2
XANTENNA__09499__B2 _09816_/B vssd1 vssd1 vccd1 vccd1 sky130_fd_sc_hd__diode_2
XANTENNA__09499__A1 _09963_/A vssd1 vssd1 vccd1 vccd1 sky130_fd_sc_hd__diode_2
XANTENNA__08349__A _09528_/A vssd1 vssd1 vccd1 vccd1 sky130_fd_sc_hd__diode_2
XFILLER_0_56_604 vssd1 vssd1 vccd1 vccd1 sky130_fd_sc_hd__decap_8
XFILLER_0_28_306 vssd1 vssd1 vccd1 vccd1 sky130_fd_sc_hd__fill_2
XFILLER_0_83_456 vssd1 vssd1 vccd1 vccd1 sky130_fd_sc_hd__fill_2
XFILLER_0_55_158 vssd1 vssd1 vccd1 vccd1 sky130_fd_sc_hd__decap_6
XFILLER_0_43_309 vssd1 vssd1 vccd1 vccd1 sky130_fd_sc_hd__fill_1
XFILLER_0_24_501 vssd1 vssd1 vccd1 vccd1 sky130_ef_sc_hd__decap_12
XFILLER_0_3_417 vssd1 vssd1 vccd1 vccd1 sky130_ef_sc_hd__decap_12
XFILLER_0_51_364 vssd1 vssd1 vccd1 vccd1 sky130_fd_sc_hd__decap_8
XFILLER_0_24_589 vssd1 vssd1 vccd1 vccd1 sky130_fd_sc_hd__decap_3
XFILLER_0_11_217 vssd1 vssd1 vccd1 vccd1 sky130_fd_sc_hd__decap_6
XFILLER_0_59_69 vssd1 vssd1 vccd1 vccd1 sky130_fd_sc_hd__fill_2
X_10489_ _10495_/CLK hold42/X fanout99/X vssd1 vssd1 vccd1 vccd1 _10489_/Q sky130_fd_sc_hd__dfrtp_2
XANTENNA__07428__A _10083_/B vssd1 vssd1 vccd1 vccd1 sky130_fd_sc_hd__diode_2
XFILLER_0_75_24 vssd1 vssd1 vccd1 vccd1 sky130_ef_sc_hd__decap_12
XFILLER_0_75_57 vssd1 vssd1 vccd1 vccd1 sky130_ef_sc_hd__decap_12
X_06720_ _06720_/A _06719_/Y vssd1 vssd1 vccd1 vccd1 _06982_/B sky130_fd_sc_hd__or2b_1
X_06651_ _06651_/A _06651_/B vssd1 vssd1 vccd1 vccd1 _06654_/C sky130_fd_sc_hd__nand2_1
XANTENNA__07163__A _09022_/D vssd1 vssd1 vccd1 vccd1 sky130_fd_sc_hd__diode_2
XFILLER_0_91_45 vssd1 vssd1 vccd1 vccd1 sky130_fd_sc_hd__decap_8
X_05602_ input38/X _08810_/B vssd1 vssd1 vccd1 vccd1 _05604_/A sky130_fd_sc_hd__nand2_1
XFILLER_0_93_209 vssd1 vssd1 vccd1 vccd1 sky130_fd_sc_hd__fill_2
X_09370_ _09608_/A _09370_/B vssd1 vssd1 vccd1 vccd1 _09372_/A sky130_fd_sc_hd__nand2_1
X_06582_ _06582_/A _06582_/B vssd1 vssd1 vccd1 vccd1 _06590_/A sky130_fd_sc_hd__nand2_1
XFILLER_0_74_434 vssd1 vssd1 vccd1 vccd1 sky130_fd_sc_hd__fill_2
XFILLER_0_74_401 vssd1 vssd1 vccd1 vccd1 sky130_fd_sc_hd__decap_6
X_08321_ _08386_/A _08386_/B vssd1 vssd1 vccd1 vccd1 _08385_/A sky130_fd_sc_hd__nand2_1
X_05533_ _05533_/A vssd1 vssd1 vccd1 vccd1 _05534_/B sky130_fd_sc_hd__inv_2
XFILLER_0_74_467 vssd1 vssd1 vccd1 vccd1 sky130_fd_sc_hd__decap_6
XANTENNA__08706__B _09999_/A vssd1 vssd1 vccd1 vccd1 sky130_fd_sc_hd__diode_2
X_08252_ _08253_/B _08253_/A vssd1 vssd1 vccd1 vccd1 _08464_/A sky130_fd_sc_hd__or2_1
X_05464_ _05464_/A _05464_/B _05464_/C vssd1 vssd1 vccd1 vccd1 _05826_/B sky130_fd_sc_hd__nand3_1
XFILLER_0_61_117 vssd1 vssd1 vccd1 vccd1 sky130_fd_sc_hd__fill_2
X_07203_ _07203_/A _07203_/B vssd1 vssd1 vccd1 vccd1 _07225_/A sky130_fd_sc_hd__nor2_1
XFILLER_0_15_512 vssd1 vssd1 vccd1 vccd1 sky130_fd_sc_hd__decap_6
XFILLER_0_27_350 vssd1 vssd1 vccd1 vccd1 sky130_fd_sc_hd__decap_4
XFILLER_0_34_309 vssd1 vssd1 vccd1 vccd1 sky130_fd_sc_hd__fill_2
XANTENNA__05411__A input3/X vssd1 vssd1 vccd1 vccd1 sky130_fd_sc_hd__diode_2
X_08183_ _08140_/Y _08144_/Y _08182_/X vssd1 vssd1 vccd1 vccd1 _08184_/B sky130_fd_sc_hd__a21oi_1
XANTENNA__06226__B _09981_/A vssd1 vssd1 vccd1 vccd1 sky130_fd_sc_hd__diode_2
XFILLER_0_15_534 vssd1 vssd1 vccd1 vccd1 sky130_fd_sc_hd__fill_2
X_05395_ _05395_/A _05395_/B _05398_/A vssd1 vssd1 vccd1 vccd1 _05400_/A sky130_fd_sc_hd__nand3_1
XANTENNA__10024__A2 _09960_/A vssd1 vssd1 vccd1 vccd1 sky130_fd_sc_hd__diode_2
X_07134_ _07659_/A _07658_/A vssd1 vssd1 vccd1 vccd1 _07134_/Y sky130_fd_sc_hd__nor2_1
X_07065_ _07079_/B _07080_/B _07080_/A vssd1 vssd1 vccd1 vccd1 _07092_/B sky130_fd_sc_hd__nand3_1
X_06016_ _06016_/A _06463_/A _06016_/C vssd1 vssd1 vccd1 vccd1 _06408_/A sky130_fd_sc_hd__nand3_1
XFILLER_0_2_472 vssd1 vssd1 vccd1 vccd1 sky130_fd_sc_hd__decap_4
XFILLER_0_30_559 vssd1 vssd1 vccd1 vccd1 sky130_fd_sc_hd__decap_8
X_07967_ _07989_/A _07989_/C _07989_/B vssd1 vssd1 vccd1 vccd1 _08024_/A sky130_fd_sc_hd__a21boi_2
X_09706_ _09701_/Y _09706_/B vssd1 vssd1 vccd1 vccd1 _09733_/A sky130_fd_sc_hd__nand2b_1
X_06918_ _10083_/B _09485_/C vssd1 vssd1 vccd1 vccd1 _07110_/B sky130_fd_sc_hd__nand2_1
XFILLER_0_69_217 vssd1 vssd1 vccd1 vccd1 sky130_fd_sc_hd__decap_6
XFILLER_0_69_206 vssd1 vssd1 vccd1 vccd1 sky130_fd_sc_hd__fill_2
XANTENNA__07073__A _10083_/B vssd1 vssd1 vccd1 vccd1 sky130_fd_sc_hd__diode_2
X_07898_ _07898_/A _07898_/B _07898_/C vssd1 vssd1 vccd1 vccd1 _07907_/B sky130_fd_sc_hd__nand3_1
X_09637_ _09637_/A _09637_/B vssd1 vssd1 vccd1 vccd1 _09917_/A sky130_fd_sc_hd__nand2_1
X_06849_ _06849_/A _06849_/B vssd1 vssd1 vccd1 vccd1 _07008_/B sky130_fd_sc_hd__nand2_1
X_09568_ _09568_/A _09568_/B _09568_/C vssd1 vssd1 vccd1 vccd1 _09569_/B sky130_fd_sc_hd__nand3_1
XFILLER_0_77_261 vssd1 vssd1 vccd1 vccd1 sky130_fd_sc_hd__fill_2
X_08519_ _08854_/A _08672_/A _08520_/A vssd1 vssd1 vccd1 vccd1 _08594_/A sky130_fd_sc_hd__nand3_1
XFILLER_0_92_242 vssd1 vssd1 vccd1 vccd1 sky130_fd_sc_hd__fill_2
X_09499_ _09963_/A _09960_/B _09962_/A _09816_/B vssd1 vssd1 vccd1 vccd1 _09692_/A
+ sky130_fd_sc_hd__a22o_1
XFILLER_0_65_445 vssd1 vssd1 vccd1 vccd1 sky130_fd_sc_hd__decap_3
XFILLER_0_37_158 vssd1 vssd1 vccd1 vccd1 sky130_fd_sc_hd__decap_8
XFILLER_0_92_253 vssd1 vssd1 vccd1 vccd1 sky130_fd_sc_hd__decap_4
XANTENNA__05321__A input3/X vssd1 vssd1 vccd1 vccd1 sky130_fd_sc_hd__diode_2
XFILLER_0_37_169 vssd1 vssd1 vccd1 vccd1 sky130_ef_sc_hd__decap_12
XFILLER_0_52_139 vssd1 vssd1 vccd1 vccd1 sky130_fd_sc_hd__fill_1
XFILLER_0_18_394 vssd1 vssd1 vccd1 vccd1 sky130_ef_sc_hd__decap_12
X_10412_ _10413_/B _10413_/A vssd1 vssd1 vccd1 vccd1 _10414_/A sky130_fd_sc_hd__or2_1
X_10343_ hold66/X _10344_/A vssd1 vssd1 vccd1 vccd1 hold67/A sky130_fd_sc_hd__or2_1
XFILLER_0_60_183 vssd1 vssd1 vccd1 vccd1 sky130_fd_sc_hd__fill_2
XFILLER_0_21_526 vssd1 vssd1 vccd1 vccd1 sky130_fd_sc_hd__fill_2
XFILLER_0_60_194 vssd1 vssd1 vccd1 vccd1 sky130_fd_sc_hd__fill_2
X_10274_ hold106/X vssd1 vssd1 vccd1 vccd1 _10492_/D sky130_fd_sc_hd__clkbuf_1
XFILLER_0_29_39 vssd1 vssd1 vccd1 vccd1 sky130_ef_sc_hd__decap_12
XANTENNA__09463__A _09980_/A vssd1 vssd1 vccd1 vccd1 sky130_fd_sc_hd__diode_2
XFILLER_0_88_526 vssd1 vssd1 vccd1 vccd1 sky130_fd_sc_hd__decap_4
XFILLER_0_0_29 vssd1 vssd1 vccd1 vccd1 sky130_ef_sc_hd__decap_12
XFILLER_0_61_48 vssd1 vssd1 vccd1 vccd1 sky130_fd_sc_hd__decap_8
XFILLER_0_83_253 vssd1 vssd1 vccd1 vccd1 sky130_fd_sc_hd__decap_4
XFILLER_0_71_426 vssd1 vssd1 vccd1 vccd1 sky130_ef_sc_hd__decap_12
XFILLER_0_43_106 vssd1 vssd1 vccd1 vccd1 sky130_fd_sc_hd__decap_6
XANTENNA__05231__A _09496_/B vssd1 vssd1 vccd1 vccd1 sky130_fd_sc_hd__diode_2
XFILLER_0_3_225 vssd1 vssd1 vccd1 vccd1 sky130_ef_sc_hd__decap_12
XFILLER_0_10_85 vssd1 vssd1 vccd1 vccd1 sky130_ef_sc_hd__decap_12
XFILLER_0_12_548 vssd1 vssd1 vccd1 vccd1 sky130_fd_sc_hd__decap_3
XFILLER_0_86_56 vssd1 vssd1 vccd1 vccd1 sky130_ef_sc_hd__decap_12
X_08870_ _08870_/A vssd1 vssd1 vccd1 vccd1 _08870_/Y sky130_fd_sc_hd__inv_2
X_07821_ _07821_/A _07821_/B vssd1 vssd1 vccd1 vccd1 _07822_/A sky130_fd_sc_hd__nand2_1
XFILLER_0_19_61 vssd1 vssd1 vccd1 vccd1 sky130_fd_sc_hd__decap_8
X_07752_ _07752_/A _07753_/A vssd1 vssd1 vccd1 vccd1 _07755_/A sky130_fd_sc_hd__nand2_1
XFILLER_0_79_559 vssd1 vssd1 vccd1 vccd1 sky130_fd_sc_hd__fill_1
X_07683_ _07683_/A _07683_/B vssd1 vssd1 vccd1 vccd1 _07692_/B sky130_fd_sc_hd__nand2_1
X_06703_ _06703_/A _06703_/B _06703_/C vssd1 vssd1 vccd1 vccd1 _06946_/B sky130_fd_sc_hd__nand3_1
X_09422_ _09427_/A _09669_/A vssd1 vssd1 vccd1 vccd1 _09426_/A sky130_fd_sc_hd__nand2_1
X_06634_ _06634_/A _06634_/B vssd1 vssd1 vccd1 vccd1 _08656_/A sky130_fd_sc_hd__nand2_1
X_09353_ _09353_/A _09353_/B vssd1 vssd1 vccd1 vccd1 _09412_/B sky130_fd_sc_hd__nand2_1
XFILLER_0_87_581 vssd1 vssd1 vccd1 vccd1 sky130_ef_sc_hd__decap_12
X_06565_ _06565_/A _06565_/B vssd1 vssd1 vccd1 vccd1 _06566_/B sky130_fd_sc_hd__nand2_1
X_08304_ _08511_/A _08304_/B _08582_/A vssd1 vssd1 vccd1 vccd1 _08308_/C sky130_fd_sc_hd__nand3_1
XFILLER_0_47_445 vssd1 vssd1 vccd1 vccd1 sky130_fd_sc_hd__decap_3
X_09284_ _09448_/A _09284_/B vssd1 vssd1 vccd1 vccd1 _09286_/A sky130_fd_sc_hd__nand2b_1
XFILLER_0_74_253 vssd1 vssd1 vccd1 vccd1 sky130_ef_sc_hd__decap_12
X_06496_ _06502_/B vssd1 vssd1 vccd1 vccd1 _06499_/B sky130_fd_sc_hd__inv_2
X_05516_ _05516_/A _05998_/A vssd1 vssd1 vccd1 vccd1 _05518_/A sky130_fd_sc_hd__nand2_1
XFILLER_0_47_478 vssd1 vssd1 vccd1 vccd1 sky130_ef_sc_hd__decap_12
XFILLER_0_7_542 vssd1 vssd1 vccd1 vccd1 sky130_ef_sc_hd__decap_12
XFILLER_0_19_158 vssd1 vssd1 vccd1 vccd1 sky130_fd_sc_hd__fill_1
XFILLER_0_19_169 vssd1 vssd1 vccd1 vccd1 sky130_fd_sc_hd__decap_4
XFILLER_0_74_297 vssd1 vssd1 vccd1 vccd1 sky130_fd_sc_hd__fill_1
XFILLER_0_74_286 vssd1 vssd1 vccd1 vccd1 sky130_fd_sc_hd__decap_8
X_08235_ _08235_/A _08235_/B vssd1 vssd1 vccd1 vccd1 _08236_/B sky130_fd_sc_hd__nand2_1
X_05447_ _05447_/A vssd1 vssd1 vccd1 vccd1 _05448_/B sky130_fd_sc_hd__inv_2
XFILLER_0_7_575 vssd1 vssd1 vccd1 vccd1 sky130_ef_sc_hd__decap_12
XANTENNA__09548__A _09548_/A vssd1 vssd1 vccd1 vccd1 sky130_fd_sc_hd__diode_2
X_08166_ _10385_/B _08196_/C vssd1 vssd1 vccd1 vccd1 _08169_/A sky130_fd_sc_hd__nor2_1
X_05378_ _05397_/A _05397_/C vssd1 vssd1 vccd1 vccd1 _05405_/B sky130_fd_sc_hd__nand2_1
XANTENNA__08452__A _09963_/B vssd1 vssd1 vccd1 vccd1 sky130_fd_sc_hd__diode_2