*SPEF "ieee 1481-1999"
*DESIGN "busarb_2_2"
*DATE "11:11:11 Fri 11 11, 1111"
*VENDOR "OpenRCX"
*PROGRAM "Parallel Extraction"
*VERSION "1.0"
*DESIGN_FLOW "NAME_SCOPE LOCAL" "PIN_CAP NONE"
*DIVIDER /
*DELIMITER :
*BUS_DELIMITER []
*T_UNIT 1 NS
*C_UNIT 1 PF
*R_UNIT 1 OHM
*L_UNIT 1 HENRY

*NAME_MAP
*1 clk_i
*2 mports_i[0]
*3 mports_i[100]
*4 mports_i[101]
*5 mports_i[102]
*6 mports_i[103]
*7 mports_i[104]
*8 mports_i[105]
*9 mports_i[106]
*10 mports_i[107]
*11 mports_i[108]
*12 mports_i[109]
*13 mports_i[10]
*14 mports_i[110]
*15 mports_i[111]
*16 mports_i[112]
*17 mports_i[113]
*18 mports_i[114]
*19 mports_i[115]
*20 mports_i[116]
*21 mports_i[117]
*22 mports_i[118]
*23 mports_i[119]
*24 mports_i[11]
*25 mports_i[120]
*26 mports_i[121]
*27 mports_i[122]
*28 mports_i[123]
*29 mports_i[124]
*30 mports_i[125]
*31 mports_i[126]
*32 mports_i[127]
*33 mports_i[128]
*34 mports_i[129]
*35 mports_i[12]
*36 mports_i[130]
*37 mports_i[131]
*38 mports_i[132]
*39 mports_i[133]
*40 mports_i[134]
*41 mports_i[135]
*42 mports_i[136]
*43 mports_i[137]
*44 mports_i[138]
*45 mports_i[139]
*46 mports_i[13]
*47 mports_i[140]
*48 mports_i[141]
*49 mports_i[142]
*50 mports_i[143]
*51 mports_i[144]
*52 mports_i[145]
*53 mports_i[146]
*54 mports_i[147]
*55 mports_i[148]
*56 mports_i[149]
*57 mports_i[14]
*58 mports_i[150]
*59 mports_i[151]
*60 mports_i[152]
*61 mports_i[153]
*62 mports_i[154]
*63 mports_i[155]
*64 mports_i[156]
*65 mports_i[157]
*66 mports_i[158]
*67 mports_i[159]
*68 mports_i[15]
*69 mports_i[160]
*70 mports_i[161]
*71 mports_i[162]
*72 mports_i[163]
*73 mports_i[164]
*74 mports_i[165]
*75 mports_i[166]
*76 mports_i[167]
*77 mports_i[168]
*78 mports_i[169]
*79 mports_i[16]
*80 mports_i[170]
*81 mports_i[171]
*82 mports_i[172]
*83 mports_i[173]
*84 mports_i[174]
*85 mports_i[175]
*86 mports_i[176]
*87 mports_i[177]
*88 mports_i[178]
*89 mports_i[179]
*90 mports_i[17]
*91 mports_i[180]
*92 mports_i[181]
*93 mports_i[182]
*94 mports_i[183]
*95 mports_i[184]
*96 mports_i[185]
*97 mports_i[186]
*98 mports_i[187]
*99 mports_i[188]
*100 mports_i[189]
*101 mports_i[18]
*102 mports_i[190]
*103 mports_i[191]
*104 mports_i[192]
*105 mports_i[193]
*106 mports_i[194]
*107 mports_i[195]
*108 mports_i[196]
*109 mports_i[197]
*110 mports_i[198]
*111 mports_i[199]
*112 mports_i[19]
*113 mports_i[1]
*114 mports_i[200]
*115 mports_i[201]
*116 mports_i[202]
*117 mports_i[203]
*118 mports_i[204]
*119 mports_i[205]
*120 mports_i[206]
*121 mports_i[207]
*122 mports_i[208]
*123 mports_i[209]
*124 mports_i[20]
*125 mports_i[210]
*126 mports_i[211]
*127 mports_i[212]
*128 mports_i[213]
*129 mports_i[214]
*130 mports_i[215]
*131 mports_i[216]
*132 mports_i[217]
*133 mports_i[218]
*134 mports_i[219]
*135 mports_i[21]
*136 mports_i[220]
*137 mports_i[221]
*138 mports_i[222]
*139 mports_i[223]
*140 mports_i[224]
*141 mports_i[225]
*142 mports_i[226]
*143 mports_i[227]
*144 mports_i[22]
*145 mports_i[23]
*146 mports_i[24]
*147 mports_i[25]
*148 mports_i[26]
*149 mports_i[27]
*150 mports_i[28]
*151 mports_i[29]
*152 mports_i[2]
*153 mports_i[30]
*154 mports_i[31]
*155 mports_i[32]
*156 mports_i[33]
*157 mports_i[34]
*158 mports_i[35]
*159 mports_i[36]
*160 mports_i[37]
*161 mports_i[38]
*162 mports_i[39]
*163 mports_i[3]
*164 mports_i[40]
*165 mports_i[41]
*166 mports_i[42]
*167 mports_i[43]
*168 mports_i[44]
*169 mports_i[45]
*170 mports_i[46]
*171 mports_i[47]
*172 mports_i[48]
*173 mports_i[49]
*174 mports_i[4]
*175 mports_i[50]
*176 mports_i[51]
*177 mports_i[52]
*178 mports_i[53]
*179 mports_i[54]
*180 mports_i[55]
*181 mports_i[56]
*182 mports_i[57]
*183 mports_i[58]
*184 mports_i[59]
*185 mports_i[5]
*186 mports_i[60]
*187 mports_i[61]
*188 mports_i[62]
*189 mports_i[63]
*190 mports_i[64]
*191 mports_i[65]
*192 mports_i[66]
*193 mports_i[67]
*194 mports_i[68]
*195 mports_i[69]
*196 mports_i[6]
*197 mports_i[70]
*198 mports_i[71]
*199 mports_i[72]
*200 mports_i[73]
*201 mports_i[74]
*202 mports_i[75]
*203 mports_i[76]
*204 mports_i[77]
*205 mports_i[78]
*206 mports_i[79]
*207 mports_i[7]
*208 mports_i[80]
*209 mports_i[81]
*210 mports_i[82]
*211 mports_i[83]
*212 mports_i[84]
*213 mports_i[85]
*214 mports_i[86]
*215 mports_i[87]
*216 mports_i[88]
*217 mports_i[89]
*218 mports_i[8]
*219 mports_i[90]
*220 mports_i[91]
*221 mports_i[92]
*222 mports_i[93]
*223 mports_i[94]
*224 mports_i[95]
*225 mports_i[96]
*226 mports_i[97]
*227 mports_i[98]
*228 mports_i[99]
*229 mports_i[9]
*230 mports_o[0]
*231 mports_o[100]
*232 mports_o[101]
*233 mports_o[102]
*234 mports_o[103]
*235 mports_o[104]
*236 mports_o[105]
*237 mports_o[106]
*238 mports_o[107]
*239 mports_o[108]
*240 mports_o[109]
*241 mports_o[10]
*242 mports_o[110]
*243 mports_o[111]
*244 mports_o[112]
*245 mports_o[113]
*246 mports_o[114]
*247 mports_o[115]
*248 mports_o[116]
*249 mports_o[117]
*250 mports_o[118]
*251 mports_o[119]
*252 mports_o[11]
*253 mports_o[120]
*254 mports_o[121]
*255 mports_o[122]
*256 mports_o[123]
*257 mports_o[124]
*258 mports_o[125]
*259 mports_o[126]
*260 mports_o[127]
*261 mports_o[128]
*262 mports_o[129]
*263 mports_o[12]
*264 mports_o[130]
*265 mports_o[131]
*266 mports_o[132]
*267 mports_o[133]
*268 mports_o[134]
*269 mports_o[135]
*270 mports_o[13]
*271 mports_o[14]
*272 mports_o[15]
*273 mports_o[16]
*274 mports_o[17]
*275 mports_o[18]
*276 mports_o[19]
*277 mports_o[1]
*278 mports_o[20]
*279 mports_o[21]
*280 mports_o[22]
*281 mports_o[23]
*282 mports_o[24]
*283 mports_o[25]
*284 mports_o[26]
*285 mports_o[27]
*286 mports_o[28]
*287 mports_o[29]
*288 mports_o[2]
*289 mports_o[30]
*290 mports_o[31]
*291 mports_o[32]
*292 mports_o[33]
*293 mports_o[34]
*294 mports_o[35]
*295 mports_o[36]
*296 mports_o[37]
*297 mports_o[38]
*298 mports_o[39]
*299 mports_o[3]
*300 mports_o[40]
*301 mports_o[41]
*302 mports_o[42]
*303 mports_o[43]
*304 mports_o[44]
*305 mports_o[45]
*306 mports_o[46]
*307 mports_o[47]
*308 mports_o[48]
*309 mports_o[49]
*310 mports_o[4]
*311 mports_o[50]
*312 mports_o[51]
*313 mports_o[52]
*314 mports_o[53]
*315 mports_o[54]
*316 mports_o[55]
*317 mports_o[56]
*318 mports_o[57]
*319 mports_o[58]
*320 mports_o[59]
*321 mports_o[5]
*322 mports_o[60]
*323 mports_o[61]
*324 mports_o[62]
*325 mports_o[63]
*326 mports_o[64]
*327 mports_o[65]
*328 mports_o[66]
*329 mports_o[67]
*330 mports_o[68]
*331 mports_o[69]
*332 mports_o[6]
*333 mports_o[70]
*334 mports_o[71]
*335 mports_o[72]
*336 mports_o[73]
*337 mports_o[74]
*338 mports_o[75]
*339 mports_o[76]
*340 mports_o[77]
*341 mports_o[78]
*342 mports_o[79]
*343 mports_o[7]
*344 mports_o[80]
*345 mports_o[81]
*346 mports_o[82]
*347 mports_o[83]
*348 mports_o[84]
*349 mports_o[85]
*350 mports_o[86]
*351 mports_o[87]
*352 mports_o[88]
*353 mports_o[89]
*354 mports_o[8]
*355 mports_o[90]
*356 mports_o[91]
*357 mports_o[92]
*358 mports_o[93]
*359 mports_o[94]
*360 mports_o[95]
*361 mports_o[96]
*362 mports_o[97]
*363 mports_o[98]
*364 mports_o[99]
*365 mports_o[9]
*366 nrst_i
*367 sports_i[0]
*368 sports_i[100]
*369 sports_i[101]
*370 sports_i[102]
*371 sports_i[103]
*372 sports_i[104]
*373 sports_i[105]
*374 sports_i[106]
*375 sports_i[107]
*376 sports_i[108]
*377 sports_i[109]
*378 sports_i[10]
*379 sports_i[110]
*380 sports_i[111]
*381 sports_i[112]
*382 sports_i[113]
*383 sports_i[114]
*384 sports_i[115]
*385 sports_i[116]
*386 sports_i[117]
*387 sports_i[118]
*388 sports_i[119]
*389 sports_i[11]
*390 sports_i[120]
*391 sports_i[121]
*392 sports_i[122]
*393 sports_i[123]
*394 sports_i[124]
*395 sports_i[125]
*396 sports_i[126]
*397 sports_i[127]
*398 sports_i[128]
*399 sports_i[129]
*400 sports_i[12]
*401 sports_i[130]
*402 sports_i[131]
*403 sports_i[132]
*404 sports_i[133]
*405 sports_i[134]
*406 sports_i[135]
*407 sports_i[13]
*408 sports_i[14]
*409 sports_i[15]
*410 sports_i[16]
*411 sports_i[17]
*412 sports_i[18]
*413 sports_i[19]
*414 sports_i[1]
*415 sports_i[20]
*416 sports_i[21]
*417 sports_i[22]
*418 sports_i[23]
*419 sports_i[24]
*420 sports_i[25]
*421 sports_i[26]
*422 sports_i[27]
*423 sports_i[28]
*424 sports_i[29]
*425 sports_i[2]
*426 sports_i[30]
*427 sports_i[31]
*428 sports_i[32]
*429 sports_i[33]
*430 sports_i[34]
*431 sports_i[35]
*432 sports_i[36]
*433 sports_i[37]
*434 sports_i[38]
*435 sports_i[39]
*436 sports_i[3]
*437 sports_i[40]
*438 sports_i[41]
*439 sports_i[42]
*440 sports_i[43]
*441 sports_i[44]
*442 sports_i[45]
*443 sports_i[46]
*444 sports_i[47]
*445 sports_i[48]
*446 sports_i[49]
*447 sports_i[4]
*448 sports_i[50]
*449 sports_i[51]
*450 sports_i[52]
*451 sports_i[53]
*452 sports_i[54]
*453 sports_i[55]
*454 sports_i[56]
*455 sports_i[57]
*456 sports_i[58]
*457 sports_i[59]
*458 sports_i[5]
*459 sports_i[60]
*460 sports_i[61]
*461 sports_i[62]
*462 sports_i[63]
*463 sports_i[64]
*464 sports_i[65]
*465 sports_i[66]
*466 sports_i[67]
*467 sports_i[68]
*468 sports_i[69]
*469 sports_i[6]
*470 sports_i[70]
*471 sports_i[71]
*472 sports_i[72]
*473 sports_i[73]
*474 sports_i[74]
*475 sports_i[75]
*476 sports_i[76]
*477 sports_i[77]
*478 sports_i[78]
*479 sports_i[79]
*480 sports_i[7]
*481 sports_i[80]
*482 sports_i[81]
*483 sports_i[82]
*484 sports_i[83]
*485 sports_i[84]
*486 sports_i[85]
*487 sports_i[86]
*488 sports_i[87]
*489 sports_i[88]
*490 sports_i[89]
*491 sports_i[8]
*492 sports_i[90]
*493 sports_i[91]
*494 sports_i[92]
*495 sports_i[93]
*496 sports_i[94]
*497 sports_i[95]
*498 sports_i[96]
*499 sports_i[97]
*500 sports_i[98]
*501 sports_i[99]
*502 sports_i[9]
*503 sports_o[0]
*504 sports_o[100]
*505 sports_o[101]
*506 sports_o[102]
*507 sports_o[103]
*508 sports_o[104]
*509 sports_o[105]
*510 sports_o[106]
*511 sports_o[107]
*512 sports_o[108]
*513 sports_o[109]
*514 sports_o[10]
*515 sports_o[110]
*516 sports_o[111]
*517 sports_o[112]
*518 sports_o[113]
*519 sports_o[114]
*520 sports_o[115]
*521 sports_o[116]
*522 sports_o[117]
*523 sports_o[118]
*524 sports_o[119]
*525 sports_o[11]
*526 sports_o[120]
*527 sports_o[121]
*528 sports_o[122]
*529 sports_o[123]
*530 sports_o[124]
*531 sports_o[125]
*532 sports_o[126]
*533 sports_o[127]
*534 sports_o[128]
*535 sports_o[129]
*536 sports_o[12]
*537 sports_o[130]
*538 sports_o[131]
*539 sports_o[132]
*540 sports_o[133]
*541 sports_o[134]
*542 sports_o[135]
*543 sports_o[136]
*544 sports_o[137]
*545 sports_o[138]
*546 sports_o[139]
*547 sports_o[13]
*548 sports_o[140]
*549 sports_o[141]
*550 sports_o[142]
*551 sports_o[143]
*552 sports_o[144]
*553 sports_o[145]
*554 sports_o[146]
*555 sports_o[147]
*556 sports_o[148]
*557 sports_o[149]
*558 sports_o[14]
*559 sports_o[150]
*560 sports_o[151]
*561 sports_o[152]
*562 sports_o[153]
*563 sports_o[154]
*564 sports_o[155]
*565 sports_o[156]
*566 sports_o[157]
*567 sports_o[158]
*568 sports_o[159]
*569 sports_o[15]
*570 sports_o[160]
*571 sports_o[161]
*572 sports_o[162]
*573 sports_o[163]
*574 sports_o[164]
*575 sports_o[165]
*576 sports_o[166]
*577 sports_o[167]
*578 sports_o[168]
*579 sports_o[169]
*580 sports_o[16]
*581 sports_o[170]
*582 sports_o[171]
*583 sports_o[172]
*584 sports_o[173]
*585 sports_o[174]
*586 sports_o[175]
*587 sports_o[176]
*588 sports_o[177]
*589 sports_o[178]
*590 sports_o[179]
*591 sports_o[17]
*592 sports_o[180]
*593 sports_o[181]
*594 sports_o[182]
*595 sports_o[183]
*596 sports_o[184]
*597 sports_o[185]
*598 sports_o[186]
*599 sports_o[187]
*600 sports_o[188]
*601 sports_o[189]
*602 sports_o[18]
*603 sports_o[190]
*604 sports_o[191]
*605 sports_o[192]
*606 sports_o[193]
*607 sports_o[194]
*608 sports_o[195]
*609 sports_o[196]
*610 sports_o[197]
*611 sports_o[198]
*612 sports_o[199]
*613 sports_o[19]
*614 sports_o[1]
*615 sports_o[200]
*616 sports_o[201]
*617 sports_o[202]
*618 sports_o[203]
*619 sports_o[204]
*620 sports_o[205]
*621 sports_o[206]
*622 sports_o[207]
*623 sports_o[208]
*624 sports_o[209]
*625 sports_o[20]
*626 sports_o[210]
*627 sports_o[211]
*628 sports_o[212]
*629 sports_o[213]
*630 sports_o[214]
*631 sports_o[215]
*632 sports_o[216]
*633 sports_o[217]
*634 sports_o[218]
*635 sports_o[219]
*636 sports_o[21]
*637 sports_o[220]
*638 sports_o[221]
*639 sports_o[222]
*640 sports_o[223]
*641 sports_o[224]
*642 sports_o[225]
*643 sports_o[226]
*644 sports_o[227]
*645 sports_o[22]
*646 sports_o[23]
*647 sports_o[24]
*648 sports_o[25]
*649 sports_o[26]
*650 sports_o[27]
*651 sports_o[28]
*652 sports_o[29]
*653 sports_o[2]
*654 sports_o[30]
*655 sports_o[31]
*656 sports_o[32]
*657 sports_o[33]
*658 sports_o[34]
*659 sports_o[35]
*660 sports_o[36]
*661 sports_o[37]
*662 sports_o[38]
*663 sports_o[39]
*664 sports_o[3]
*665 sports_o[40]
*666 sports_o[41]
*667 sports_o[42]
*668 sports_o[43]
*669 sports_o[44]
*670 sports_o[45]
*671 sports_o[46]
*672 sports_o[47]
*673 sports_o[48]
*674 sports_o[49]
*675 sports_o[4]
*676 sports_o[50]
*677 sports_o[51]
*678 sports_o[52]
*679 sports_o[53]
*680 sports_o[54]
*681 sports_o[55]
*682 sports_o[56]
*683 sports_o[57]
*684 sports_o[58]
*685 sports_o[59]
*686 sports_o[5]
*687 sports_o[60]
*688 sports_o[61]
*689 sports_o[62]
*690 sports_o[63]
*691 sports_o[64]
*692 sports_o[65]
*693 sports_o[66]
*694 sports_o[67]
*695 sports_o[68]
*696 sports_o[69]
*697 sports_o[6]
*698 sports_o[70]
*699 sports_o[71]
*700 sports_o[72]
*701 sports_o[73]
*702 sports_o[74]
*703 sports_o[75]
*704 sports_o[76]
*705 sports_o[77]
*706 sports_o[78]
*707 sports_o[79]
*708 sports_o[7]
*709 sports_o[80]
*710 sports_o[81]
*711 sports_o[82]
*712 sports_o[83]
*713 sports_o[84]
*714 sports_o[85]
*715 sports_o[86]
*716 sports_o[87]
*717 sports_o[88]
*718 sports_o[89]
*719 sports_o[8]
*720 sports_o[90]
*721 sports_o[91]
*722 sports_o[92]
*723 sports_o[93]
*724 sports_o[94]
*725 sports_o[95]
*726 sports_o[96]
*727 sports_o[97]
*728 sports_o[98]
*729 sports_o[99]
*730 sports_o[9]
*733 _0000_
*734 _0001_
*735 _0002_
*736 _0003_
*737 _0004_
*738 _0005_
*739 _0006_
*740 _0007_
*741 _0008_
*742 _0009_
*743 _0010_
*744 _0011_
*745 _0012_
*746 _0013_
*747 _0014_
*748 _0015_
*749 _0016_
*750 _0017_
*751 _0018_
*752 _0019_
*753 _0020_
*754 _0021_
*755 _0022_
*756 _0023_
*757 _0024_
*758 _0025_
*759 _0026_
*760 _0027_
*761 _0028_
*762 _0029_
*763 _0030_
*764 _0031_
*765 _0032_
*766 _0033_
*767 _0034_
*768 _0035_
*769 _0036_
*770 _0037_
*771 _0038_
*772 _0039_
*773 _0040_
*774 _0041_
*775 _0042_
*776 _0043_
*777 _0044_
*778 _0045_
*779 _0046_
*780 _0047_
*781 _0048_
*782 _0049_
*783 _0050_
*784 _0051_
*785 _0052_
*786 _0053_
*787 _0054_
*788 _0055_
*789 _0056_
*790 _0057_
*791 _0058_
*792 _0059_
*793 _0060_
*794 _0061_
*795 _0062_
*796 _0063_
*797 _0064_
*798 _0065_
*799 _0066_
*800 _0067_
*801 _0068_
*802 _0069_
*803 _0070_
*804 _0071_
*805 _0072_
*806 _0073_
*807 _0074_
*808 _0075_
*809 _0076_
*810 _0077_
*811 _0078_
*812 _0079_
*813 _0080_
*814 _0081_
*815 _0082_
*816 _0083_
*817 _0084_
*818 _0085_
*819 _0086_
*820 _0087_
*821 _0088_
*822 _0089_
*823 _0090_
*824 _0091_
*825 _0092_
*826 _0093_
*827 _0094_
*828 _0095_
*829 _0096_
*830 _0097_
*831 _0098_
*832 _0099_
*833 _0100_
*834 _0101_
*835 _0102_
*836 _0103_
*837 _0104_
*838 _0105_
*839 _0106_
*840 _0107_
*841 _0108_
*842 _0109_
*843 _0110_
*844 _0111_
*845 _0112_
*846 _0113_
*847 _0114_
*848 _0115_
*849 _0116_
*850 _0117_
*851 _0118_
*852 _0119_
*853 _0120_
*854 _0121_
*855 _0122_
*856 _0123_
*857 _0124_
*858 _0125_
*859 _0126_
*860 _0127_
*861 _0128_
*862 _0129_
*863 _0130_
*864 _0131_
*865 _0132_
*866 _0133_
*867 _0134_
*868 _0135_
*869 _0136_
*870 _0137_
*871 _0138_
*872 _0139_
*873 _0140_
*874 _0141_
*875 _0142_
*876 _0143_
*877 _0144_
*878 _0145_
*879 _0146_
*880 _0147_
*881 _0148_
*882 _0149_
*883 _0150_
*884 _0151_
*885 _0152_
*886 _0153_
*887 _0154_
*888 _0155_
*889 _0156_
*890 _0157_
*891 _0158_
*892 _0159_
*893 _0160_
*894 _0161_
*895 _0162_
*896 _0163_
*897 _0164_
*898 _0165_
*899 _0166_
*900 _0167_
*901 _0168_
*902 _0169_
*903 _0170_
*904 _0171_
*905 _0172_
*906 _0173_
*907 _0174_
*908 _0175_
*909 _0176_
*910 _0177_
*911 _0178_
*912 _0179_
*913 _0180_
*914 _0181_
*915 _0182_
*916 _0183_
*917 _0184_
*918 _0185_
*919 _0186_
*920 _0187_
*921 _0188_
*922 _0189_
*923 _0190_
*924 _0191_
*925 _0192_
*926 _0193_
*927 _0194_
*928 _0195_
*929 _0196_
*930 _0197_
*931 _0198_
*932 _0199_
*933 _0200_
*934 _0201_
*935 _0202_
*936 _0203_
*937 _0204_
*938 _0205_
*939 _0206_
*940 _0207_
*941 _0208_
*942 _0209_
*943 _0210_
*944 _0211_
*945 _0212_
*946 _0213_
*947 _0214_
*948 _0215_
*949 _0216_
*950 _0217_
*951 _0218_
*952 _0219_
*953 _0220_
*954 _0221_
*955 _0222_
*956 _0223_
*957 _0224_
*958 _0225_
*959 _0226_
*960 _0227_
*961 _0228_
*962 _0229_
*963 _0230_
*964 _0231_
*965 _0232_
*966 _0233_
*967 _0234_
*968 _0235_
*969 _0236_
*970 _0237_
*971 _0238_
*972 _0239_
*973 _0240_
*974 _0241_
*975 _0242_
*976 _0243_
*977 _0244_
*978 _0245_
*979 _0246_
*980 _0247_
*981 _0248_
*982 _0249_
*983 _0250_
*984 _0251_
*985 _0252_
*986 _0253_
*987 _0254_
*988 _0255_
*989 _0256_
*990 _0257_
*991 _0258_
*992 _0259_
*993 _0260_
*994 _0261_
*995 _0262_
*996 _0263_
*997 _0264_
*998 _0265_
*999 _0266_
*1000 _0267_
*1001 _0268_
*1002 _0269_
*1003 _0270_
*1004 _0271_
*1005 _0272_
*1006 _0273_
*1007 _0274_
*1008 _0275_
*1009 _0276_
*1010 _0277_
*1011 _0278_
*1012 _0279_
*1013 _0280_
*1014 _0281_
*1015 _0282_
*1016 _0283_
*1017 _0284_
*1018 _0285_
*1019 _0286_
*1020 _0287_
*1021 _0288_
*1022 _0289_
*1023 _0290_
*1024 _0291_
*1025 _0292_
*1026 _0293_
*1027 _0294_
*1028 _0295_
*1029 _0296_
*1030 _0297_
*1031 _0298_
*1032 _0299_
*1033 _0300_
*1034 _0301_
*1035 _0302_
*1036 _0303_
*1037 _0304_
*1038 _0305_
*1039 _0306_
*1040 _0307_
*1041 _0308_
*1042 _0309_
*1043 _0310_
*1044 _0311_
*1045 _0312_
*1046 _0313_
*1047 _0314_
*1048 _0315_
*1049 _0316_
*1050 _0317_
*1051 _0318_
*1052 _0319_
*1053 _0320_
*1054 _0321_
*1055 _0322_
*1056 _0323_
*1057 _0324_
*1058 _0325_
*1059 _0326_
*1060 _0327_
*1061 _0328_
*1062 _0329_
*1063 _0330_
*1064 _0331_
*1065 _0332_
*1066 _0333_
*1067 _0334_
*1068 _0335_
*1069 _0336_
*1070 _0337_
*1071 _0338_
*1072 _0339_
*1073 _0340_
*1074 _0341_
*1075 _0342_
*1076 _0343_
*1077 _0344_
*1078 _0345_
*1079 _0346_
*1080 _0347_
*1081 _0348_
*1082 _0349_
*1083 _0350_
*1084 _0351_
*1085 _0352_
*1086 _0353_
*1087 _0354_
*1088 _0355_
*1089 _0356_
*1090 _0357_
*1091 _0358_
*1092 _0359_
*1093 _0360_
*1094 _0361_
*1095 _0362_
*1096 _0363_
*1097 _0364_
*1098 _0365_
*1099 _0366_
*1100 _0367_
*1101 _0368_
*1102 _0369_
*1103 _0370_
*1104 _0371_
*1105 _0372_
*1106 _0373_
*1107 _0374_
*1108 _0375_
*1109 _0376_
*1110 _0377_
*1111 _0378_
*1112 _0379_
*1113 _0380_
*1114 _0381_
*1115 _0382_
*1116 _0383_
*1117 _0384_
*1118 _0385_
*1119 _0386_
*1120 _0387_
*1121 _0388_
*1122 _0389_
*1123 _0390_
*1124 _0391_
*1125 _0392_
*1126 _0393_
*1127 _0394_
*1128 _0395_
*1129 _0396_
*1130 _0397_
*1131 _0398_
*1132 _0399_
*1133 _0400_
*1134 _0401_
*1135 _0402_
*1136 _0403_
*1137 _0404_
*1138 _0405_
*1139 _0406_
*1140 _0407_
*1141 _0408_
*1142 _0409_
*1143 _0410_
*1144 _0411_
*1145 _0412_
*1146 _0413_
*1147 _0414_
*1148 _0415_
*1149 _0416_
*1150 _0417_
*1151 _0418_
*1152 _0419_
*1153 _0420_
*1154 _0421_
*1155 _0422_
*1156 _0423_
*1157 _0424_
*1158 _0425_
*1159 _0426_
*1160 _0427_
*1161 _0428_
*1162 _0429_
*1163 _0430_
*1164 _0431_
*1165 _0432_
*1166 _0433_
*1167 _0434_
*1168 _0435_
*1169 _0436_
*1170 _0437_
*1171 _0438_
*1172 _0439_
*1173 _0440_
*1174 _0441_
*1175 _0442_
*1176 _0443_
*1177 _0444_
*1178 _0445_
*1179 _0446_
*1180 _0447_
*1181 _0448_
*1182 _0449_
*1183 _0450_
*1184 _0451_
*1185 _0452_
*1186 _0453_
*1187 _0454_
*1188 _0455_
*1189 _0456_
*1190 _0457_
*1191 _0458_
*1192 _0459_
*1193 _0460_
*1194 _0461_
*1195 _0462_
*1196 _0463_
*1197 _0464_
*1198 _0465_
*1199 _0466_
*1200 _0467_
*1201 _0468_
*1202 _0469_
*1203 _0470_
*1204 _0471_
*1205 _0472_
*1206 _0473_
*1207 _0474_
*1208 _0475_
*1209 _0476_
*1210 _0477_
*1211 _0478_
*1212 _0479_
*1213 _0480_
*1214 _0481_
*1215 _0482_
*1216 _0483_
*1217 _0484_
*1218 _0485_
*1219 _0486_
*1220 _0487_
*1221 _0488_
*1222 _0489_
*1223 _0490_
*1224 _0491_
*1225 _0492_
*1226 _0493_
*1227 _0494_
*1228 _0495_
*1229 _0496_
*1230 _0497_
*1231 _0498_
*1232 _0499_
*1233 _0500_
*1234 _0501_
*1235 _0502_
*1236 _0503_
*1237 _0504_
*1238 _0505_
*1239 _0506_
*1240 _0507_
*1241 _0508_
*1242 _0509_
*1243 _0510_
*1244 _0511_
*1245 _0512_
*1246 _0513_
*1247 _0514_
*1248 _0515_
*1249 _0516_
*1250 _0517_
*1251 _0518_
*1252 _0519_
*1253 _0520_
*1254 _0521_
*1255 _0522_
*1256 _0523_
*1257 _0524_
*1258 _0525_
*1259 _0526_
*1260 _0527_
*1261 _0528_
*1262 _0529_
*1263 _0530_
*1264 _0531_
*1265 _0532_
*1266 _0533_
*1267 _0534_
*1268 _0535_
*1269 _0536_
*1270 _0537_
*1271 _0538_
*1272 _0539_
*1273 _0540_
*1274 _0541_
*1275 _0542_
*1276 _0543_
*1277 _0544_
*1278 _0545_
*1279 _0546_
*1280 _0547_
*1281 _0548_
*1282 _0549_
*1283 _0550_
*1284 _0551_
*1285 _0552_
*1286 _0553_
*1287 _0554_
*1288 _0555_
*1289 _0556_
*1290 _0557_
*1291 _0558_
*1292 _0559_
*1293 _0560_
*1294 _0561_
*1295 _0562_
*1296 _0563_
*1297 _0564_
*1298 _0565_
*1299 _0566_
*1300 _0567_
*1301 _0568_
*1302 _0569_
*1303 _0570_
*1304 _0571_
*1305 _0572_
*1306 _0573_
*1307 _0574_
*1308 _0575_
*1309 _0576_
*1310 _0577_
*1311 _0578_
*1312 _0579_
*1313 _0580_
*1314 _0581_
*1315 _0582_
*1316 _0583_
*1317 _0584_
*1318 _0585_
*1319 _0586_
*1320 _0587_
*1321 _0588_
*1322 _0589_
*1323 _0590_
*1324 _0591_
*1325 _0592_
*1326 _0593_
*1327 _0594_
*1328 _0595_
*1329 _0596_
*1330 _0597_
*1331 _0598_
*1332 _0599_
*1333 _0600_
*1334 _0601_
*1335 _0602_
*1336 _0603_
*1337 _0604_
*1338 _0605_
*1339 _0606_
*1340 _0607_
*1341 _0608_
*1342 _0609_
*1343 _0610_
*1344 _0611_
*1345 _0612_
*1346 _0613_
*1347 _0614_
*1348 _0615_
*1349 _0616_
*1350 _0617_
*1351 _0618_
*1352 _0619_
*1353 _0620_
*1354 _0621_
*1355 _0622_
*1356 _0623_
*1357 _0624_
*1358 _0625_
*1359 _0626_
*1360 _0627_
*1361 _0628_
*1362 _0629_
*1363 _0630_
*1364 _0631_
*1365 _0632_
*1366 _0633_
*1367 _0634_
*1368 _0635_
*1369 _0636_
*1370 _0637_
*1371 _0638_
*1372 _0639_
*1373 _0640_
*1374 _0641_
*1375 _0642_
*1376 _0643_
*1377 _0644_
*1378 _0645_
*1379 _0646_
*1380 _0647_
*1381 _0648_
*1382 _0649_
*1383 _0650_
*1384 _0651_
*1385 _0652_
*1386 _0653_
*1387 _0654_
*1388 _0655_
*1389 _0656_
*1390 _0657_
*1391 _0658_
*1392 _0659_
*1393 _0660_
*1394 _0661_
*1395 _0662_
*1396 _0663_
*1397 _0664_
*1398 _0665_
*1399 _0666_
*1400 _0667_
*1401 _0668_
*1402 _0669_
*1403 _0670_
*1404 _0671_
*1405 _0672_
*1406 _0673_
*1407 _0674_
*1408 _0675_
*1409 _0676_
*1410 _0677_
*1411 _0678_
*1412 _0679_
*1413 _0680_
*1414 _0681_
*1415 _0682_
*1416 _0683_
*1417 _0684_
*1418 _0685_
*1419 _0686_
*1420 _0687_
*1421 _0688_
*1422 _0689_
*1423 _0690_
*1424 _0691_
*1425 _0692_
*1426 _0693_
*1427 _0694_
*1428 _0695_
*1429 _0696_
*1430 _0697_
*1431 _0698_
*1432 _0699_
*1433 _0700_
*1434 _0701_
*1435 _0702_
*1436 _0703_
*1437 _0704_
*1438 _0705_
*1439 _0706_
*1440 _0707_
*1441 _0708_
*1442 _0709_
*1443 _0710_
*1444 _0711_
*1445 _0712_
*1446 _0713_
*1447 _0714_
*1448 _0715_
*1449 _0716_
*1450 _0717_
*1451 _0718_
*1452 _0719_
*1453 _0720_
*1454 _0721_
*1455 _0722_
*1456 _0723_
*1457 _0724_
*1458 _0725_
*1459 _0726_
*1460 _0727_
*1461 _0728_
*1462 _0729_
*1463 _0730_
*1464 _0731_
*1465 _0732_
*1466 _0733_
*1467 _0734_
*1468 _0735_
*1469 _0736_
*1470 _0737_
*1471 _0738_
*1472 _0739_
*1473 _0740_
*1474 _0741_
*1475 _0742_
*1476 _0743_
*1477 _0744_
*1478 _0745_
*1479 _0746_
*1480 _0747_
*1481 _0748_
*1482 _0749_
*1483 _0750_
*1484 _0751_
*1485 _0752_
*1486 _0753_
*1487 _0754_
*1488 _0755_
*1489 _0756_
*1490 _0757_
*1491 _0758_
*1492 _0759_
*1493 _0760_
*1494 _0761_
*1495 _0762_
*1496 _0763_
*1497 _0764_
*1498 _0765_
*1499 _0766_
*1500 _0767_
*1501 _0768_
*1502 _0769_
*1503 _0770_
*1504 _0771_
*1505 _0772_
*1506 _0773_
*1507 _0774_
*1508 _0775_
*1509 _0776_
*1510 _0777_
*1511 _0778_
*1512 _0779_
*1513 _0780_
*1514 _0781_
*1515 _0782_
*1516 _0783_
*1517 _0784_
*1518 _0785_
*1519 _0786_
*1520 _0787_
*1521 _0788_
*1522 _0789_
*1523 _0790_
*1524 _0791_
*1525 _0792_
*1526 _0793_
*1527 _0794_
*1528 _0795_
*1529 _0796_
*1530 _0797_
*1531 _0798_
*1532 _0799_
*1533 _0800_
*1534 _0801_
*1535 _0802_
*1536 _0803_
*1537 _0804_
*1538 _0805_
*1539 _0806_
*1540 _0807_
*1541 _0808_
*1542 _0809_
*1543 _0810_
*1544 _0811_
*1545 _0812_
*1546 _0813_
*1547 _0814_
*1548 _0815_
*1549 _0816_
*1550 _0817_
*1551 _0818_
*1552 _0819_
*1553 _0820_
*1554 _0821_
*1555 _0822_
*1556 _0823_
*1557 _0824_
*1558 _0825_
*1559 _0826_
*1560 _0827_
*1561 _0828_
*1562 _0829_
*1563 _0830_
*1564 _0831_
*1565 _0832_
*1566 _0833_
*1567 _0834_
*1568 _0835_
*1569 _0836_
*1570 _0837_
*1571 _0838_
*1572 _0839_
*1573 _0840_
*1574 _0841_
*1575 _0842_
*1576 _0843_
*1577 _0844_
*1578 _0845_
*1579 _0846_
*1580 _0847_
*1581 _0848_
*1582 _0849_
*1583 _0850_
*1584 _0851_
*1585 _0852_
*1586 _0853_
*1587 _0854_
*1588 _0855_
*1589 _0856_
*1590 _0857_
*1591 _0858_
*1592 _0859_
*1593 _0860_
*1594 _0861_
*1595 _0862_
*1596 _0863_
*1597 _0864_
*1598 _0865_
*1599 _0866_
*1600 _0867_
*1601 _0868_
*1602 _0869_
*1603 _0870_
*1604 _0871_
*1605 _0872_
*1606 _0873_
*1607 _0874_
*1608 _0875_
*1609 _0876_
*1610 _0877_
*1611 _0878_
*1612 _0879_
*1613 _0880_
*1614 _0881_
*1615 _0882_
*1616 _0883_
*1617 _0884_
*1618 _0885_
*1619 _0886_
*1620 _0887_
*1621 _0888_
*1622 _0889_
*1623 _0890_
*1624 _0891_
*1625 _0892_
*1626 _0893_
*1627 _0894_
*1628 _0895_
*1629 _0896_
*1630 _0897_
*1631 _0898_
*1632 _0899_
*1633 _0900_
*1634 _0901_
*1635 _0902_
*1636 _0903_
*1637 _0904_
*1638 _0905_
*1639 _0906_
*1640 _0907_
*1641 _0908_
*1642 _0909_
*1643 _0910_
*1644 _0911_
*1645 _0912_
*1646 _0913_
*1647 _0914_
*1648 _0915_
*1649 _0916_
*1650 _0917_
*1651 _0918_
*1652 _0919_
*1653 _0920_
*1654 _0921_
*1655 _0922_
*1656 _0923_
*1657 _0924_
*1658 _0925_
*1659 _0926_
*1660 _0927_
*1661 _0928_
*1662 _0929_
*1663 _0930_
*1664 _0931_
*1665 _0932_
*1666 _0933_
*1667 _0934_
*1668 _0935_
*1669 _0936_
*1670 _0937_
*1671 _0938_
*1672 _0939_
*1673 _0940_
*1674 _0941_
*1675 _0942_
*1676 _0943_
*1677 _0944_
*1678 _0945_
*1679 _0946_
*1680 _0947_
*1681 _0948_
*1682 _0949_
*1683 _0950_
*1684 _0951_
*1685 _0952_
*1686 _0953_
*1687 _0954_
*1688 _0955_
*1689 _0956_
*1690 _0957_
*1691 _0958_
*1692 _0959_
*1693 _0960_
*1694 _0961_
*1695 _0962_
*1696 _0963_
*1697 _0964_
*1698 _0965_
*1699 _0966_
*1700 _0967_
*1701 _0968_
*1702 _0969_
*1703 _0970_
*1704 _0971_
*1705 _0972_
*1706 _0973_
*1707 _0974_
*1708 _0975_
*1709 _0976_
*1710 _0977_
*1711 _0978_
*1712 _0979_
*1713 _0980_
*1714 _0981_
*1715 _0982_
*1716 _0983_
*1717 _0984_
*1718 _0985_
*1719 _0986_
*1720 _0987_
*1721 _0988_
*1722 _0989_
*1723 _0990_
*1724 _0991_
*1725 _0992_
*1726 _0993_
*1727 _0994_
*1728 _0995_
*1729 _0996_
*1730 _0997_
*1731 _0998_
*1732 _0999_
*1733 _1000_
*1734 _1001_
*1735 _1002_
*1736 _1003_
*1737 _1004_
*1738 _1005_
*1739 _1006_
*1740 _1007_
*1741 _1008_
*1742 _1009_
*1743 _1010_
*1744 _1011_
*1745 _1012_
*1746 _1013_
*1747 _1014_
*1748 _1015_
*1749 _1016_
*1750 _1017_
*1751 _1018_
*1752 _1019_
*1753 _1020_
*1754 _1021_
*1755 _1022_
*1756 _1023_
*1757 _1024_
*1758 _1025_
*1759 _1026_
*1760 _1027_
*1761 _1028_
*1762 _1029_
*1763 _1030_
*1764 _1031_
*1765 _1032_
*1766 _1033_
*1767 _1034_
*1768 _1035_
*1769 _1036_
*1770 _1037_
*1771 _1038_
*1772 _1039_
*1773 _1040_
*1774 _1041_
*1775 _1042_
*1776 _1043_
*1777 _1044_
*1778 _1045_
*1779 _1046_
*1780 _1047_
*1781 _1048_
*1782 _1049_
*1783 _1050_
*1784 _1051_
*1785 _1052_
*1786 _1053_
*1787 _1054_
*1788 _1055_
*1789 _1056_
*1790 _1057_
*1791 _1058_
*1792 _1059_
*1793 _1060_
*1794 _1061_
*1795 _1062_
*1796 _1063_
*1797 _1064_
*1798 _1065_
*1799 _1066_
*1800 _1067_
*1801 _1068_
*1802 _1069_
*1803 _1070_
*1804 _1071_
*1805 _1072_
*1806 _1073_
*1807 _1074_
*1808 _1075_
*1809 _1076_
*1810 _1077_
*1811 _1078_
*1812 _1079_
*1813 _1080_
*1814 _1081_
*1815 _1082_
*1816 _1083_
*1817 _1084_
*1818 _1085_
*1819 _1086_
*1820 _1087_
*1821 _1088_
*1822 _1089_
*1823 _1090_
*1824 _1091_
*1825 _1092_
*1826 _1093_
*1827 _1094_
*1828 _1095_
*1829 _1096_
*1830 _1097_
*1831 _1098_
*1832 _1099_
*1833 _1100_
*1834 _1101_
*1835 _1102_
*1836 _1103_
*1837 _1104_
*1838 _1105_
*1839 _1106_
*1840 _1107_
*1841 _1108_
*1842 _1109_
*1843 _1110_
*1844 _1111_
*1845 _1112_
*1846 _1113_
*1847 _1114_
*1848 _1115_
*1849 _1116_
*1850 _1117_
*1851 _1118_
*1852 _1119_
*1853 _1120_
*1854 _1121_
*1855 _1122_
*1856 _1123_
*1857 _1124_
*1858 _1125_
*1859 _1126_
*1860 _1127_
*1861 _1128_
*1862 _1129_
*1863 _1130_
*1864 _1131_
*1865 _1132_
*1866 _1133_
*1867 _1134_
*1868 _1135_
*1869 _1136_
*1870 _1137_
*1871 _1138_
*1872 _1139_
*1873 _1140_
*1874 _1141_
*1875 _1142_
*1876 _1143_
*1877 _1144_
*1878 _1145_
*1879 _1146_
*1880 _1147_
*1881 _1148_
*1882 _1149_
*1883 _1150_
*1884 _1151_
*1885 _1152_
*1886 _1153_
*1887 _1154_
*1888 _1155_
*1889 _1156_
*1890 _1157_
*1891 _1158_
*1892 _1159_
*1893 _1160_
*1894 _1161_
*1895 _1162_
*1896 _1163_
*1897 _1164_
*1898 _1165_
*1899 _1166_
*1900 _1167_
*1901 _1168_
*1902 _1169_
*1903 _1170_
*1904 _1171_
*1905 _1172_
*1906 _1173_
*1907 _1174_
*1908 _1175_
*1909 _1176_
*1910 _1177_
*1911 _1178_
*1912 _1179_
*1913 _1180_
*1914 _1181_
*1915 _1182_
*1916 _1183_
*1917 _1184_
*1918 _1185_
*1919 _1186_
*1920 _1187_
*1921 _1188_
*1922 _1189_
*1923 _1190_
*1924 _1191_
*1925 _1192_
*1926 _1193_
*1927 _1194_
*1928 _1195_
*1929 _1196_
*1930 _1197_
*1931 _1198_
*1932 _1199_
*1933 _1200_
*1934 arbiter\.master_handled\[0\]
*1935 arbiter\.master_handled\[1\]
*1936 arbiter\.master_handled\[2\]
*1937 arbiter\.master_handled\[3\]
*1938 arbiter\.master_sel\[0\]\[0\]
*1939 arbiter\.master_sel\[0\]\[1\]
*1940 arbiter\.slave_handled\[0\]
*1941 arbiter\.slave_handled\[1\]
*1942 arbiter\.slave_handled\[2\]
*1943 arbiter\.slave_handled\[3\]
*1944 arbiter\.slave_sel\[0\]\[0\]
*1945 arbiter\.slave_sel\[0\]\[1\]
*1946 arbiter\.state\[0\]\[0\]
*1947 arbiter\.state\[0\]\[1\]
*1948 clknet_0_clk_i
*1949 clknet_1_0__leaf_clk_i
*1950 clknet_1_1__leaf_clk_i
*1951 net1
*1952 net10
*1953 net100
*1954 net101
*1955 net102
*1956 net103
*1957 net104
*1958 net105
*1959 net106
*1960 net107
*1961 net108
*1962 net109
*1963 net11
*1964 net110
*1965 net111
*1966 net112
*1967 net113
*1968 net114
*1969 net115
*1970 net116
*1971 net117
*1972 net118
*1973 net119
*1974 net12
*1975 net120
*1976 net121
*1977 net122
*1978 net123
*1979 net124
*1980 net125
*1981 net126
*1982 net127
*1983 net128
*1984 net129
*1985 net13
*1986 net130
*1987 net131
*1988 net132