*SPEF "ieee 1481-1999"
*DESIGN "spi_mem_m"
*DATE "11:11:11 Fri 11 11, 1111"
*VENDOR "OpenRCX"
*PROGRAM "Parallel Extraction"
*VERSION "1.0"
*DESIGN_FLOW "NAME_SCOPE LOCAL" "PIN_CAP NONE"
*DIVIDER /
*DELIMITER :
*BUS_DELIMITER []
*T_UNIT 1 NS
*C_UNIT 1 PF
*R_UNIT 1 OHM
*L_UNIT 1 HENRY

*NAME_MAP
*1 clk_i
*2 nrst_i
*3 spi_clk_o
*4 spi_cs_o
*5 spi_dqsm_i
*6 net108
*7 spi_miso_i[0]
*8 spi_miso_i[1]
*9 spi_miso_i[2]
*10 spi_miso_i[3]
*11 spi_mosi_o[0]
*12 spi_mosi_o[1]
*13 spi_mosi_o[2]
*14 spi_mosi_o[3]
*15 sport_i[0]
*16 sport_i[10]
*17 sport_i[11]
*18 sport_i[12]
*19 sport_i[13]
*20 sport_i[14]
*21 sport_i[15]
*22 sport_i[16]
*23 sport_i[17]
*24 sport_i[18]
*25 sport_i[19]
*26 sport_i[1]
*27 sport_i[20]
*28 sport_i[21]
*29 sport_i[22]
*30 sport_i[23]
*31 sport_i[24]
*32 sport_i[25]
*33 sport_i[26]
*34 sport_i[27]
*35 sport_i[28]
*36 sport_i[29]
*37 sport_i[2]
*38 sport_i[30]
*39 sport_i[31]
*40 sport_i[32]
*41 sport_i[33]
*42 sport_i[34]
*43 sport_i[35]
*44 sport_i[36]
*45 sport_i[37]
*46 sport_i[38]
*47 sport_i[39]
*48 sport_i[3]
*49 sport_i[40]
*50 sport_i[41]
*51 sport_i[42]
*52 sport_i[43]
*53 sport_i[44]
*54 sport_i[45]
*55 sport_i[46]
*56 sport_i[47]
*57 sport_i[48]
*58 sport_i[49]
*59 sport_i[4]
*60 sport_i[50]
*61 sport_i[51]
*62 sport_i[52]
*63 sport_i[53]
*64 sport_i[54]
*65 sport_i[55]
*66 sport_i[56]
*67 sport_i[5]
*68 sport_i[6]
*69 sport_i[7]
*70 sport_i[8]
*71 sport_i[9]
*72 sport_o[0]
*73 sport_o[10]
*74 sport_o[11]
*75 sport_o[12]
*76 sport_o[13]
*77 sport_o[14]
*78 sport_o[15]
*79 sport_o[16]
*80 sport_o[17]
*81 sport_o[18]
*82 sport_o[19]
*83 sport_o[1]
*84 sport_o[20]
*85 sport_o[21]
*86 sport_o[22]
*87 sport_o[23]
*88 sport_o[24]
*89 sport_o[25]
*90 sport_o[26]
*91 sport_o[27]
*92 sport_o[28]
*93 sport_o[29]
*94 sport_o[2]
*95 sport_o[30]
*96 sport_o[31]
*97 sport_o[32]
*98 sport_o[33]
*99 sport_o[3]
*100 sport_o[4]
*101 sport_o[5]
*102 sport_o[6]
*103 sport_o[7]
*104 sport_o[8]
*105 sport_o[9]
*108 _0000_
*109 _0001_
*110 _0002_
*111 _0003_
*112 _0004_
*113 _0005_
*114 _0006_
*115 _0007_
*116 _0008_
*117 _0009_
*118 _0010_
*119 _0011_
*120 _0013_
*121 _0014_
*122 _0015_
*123 _0016_
*124 _0017_
*125 _0018_
*126 _0019_
*127 _0020_
*128 _0021_
*129 _0022_
*130 _0023_
*131 _0024_
*132 _0025_
*133 _0026_
*134 _0027_
*135 _0028_
*136 _0029_
*137 _0030_
*138 _0031_
*139 _0032_
*140 _0033_
*141 _0034_
*142 _0035_
*143 _0036_
*144 _0037_
*145 _0038_
*146 _0039_
*147 _0040_
*148 _0041_
*149 _0042_
*150 _0043_
*151 _0044_
*152 _0045_
*153 _0046_
*154 _0047_
*155 _0048_
*156 _0049_
*157 _0050_
*158 _0051_
*159 _0052_
*160 _0053_
*161 _0054_
*162 _0055_
*163 _0056_
*164 _0057_
*165 _0058_
*166 _0059_
*167 _0060_
*168 _0061_
*169 _0062_
*170 _0063_
*171 _0064_
*172 _0065_
*173 _0066_
*174 _0067_
*175 _0068_
*176 _0069_
*177 _0070_
*178 _0071_
*179 _0072_
*180 _0073_
*181 _0074_
*182 _0075_
*183 _0076_
*184 _0077_
*185 _0078_
*186 _0079_
*187 _0080_
*188 _0081_
*189 _0082_
*190 _0083_
*191 _0084_
*192 _0085_
*193 _0086_
*194 _0087_
*195 _0088_
*196 _0089_
*197 _0090_
*198 _0091_
*199 _0092_
*200 _0093_
*201 _0094_
*202 _0095_
*203 _0096_
*204 _0097_
*205 _0098_
*206 _0099_
*207 _0100_
*208 _0101_
*209 _0102_
*210 _0103_
*211 _0104_
*212 _0105_
*213 _0106_
*214 _0107_
*215 _0108_
*216 _0109_
*217 _0110_
*218 _0111_
*219 _0112_
*220 _0113_
*221 _0114_
*222 _0115_
*223 _0116_
*224 _0117_
*225 _0118_
*226 _0119_
*227 _0120_
*228 _0121_
*229 _0122_
*230 _0123_
*231 _0124_
*232 _0125_
*233 _0126_
*234 _0127_
*235 _0128_
*236 _0129_
*237 _0130_
*238 _0131_
*239 _0132_
*240 _0133_
*241 _0134_
*242 _0135_
*243 _0136_
*244 _0137_
*245 _0138_
*246 _0139_
*247 _0140_
*248 _0141_
*249 _0142_
*250 _0143_
*251 _0144_
*252 _0145_
*253 _0146_
*254 _0147_
*255 _0148_
*256 _0149_
*257 _0150_
*258 _0151_
*259 _0152_
*260 _0153_
*261 _0154_
*262 _0155_
*263 _0156_
*264 _0157_
*265 _0158_
*266 _0159_
*267 _0160_
*268 _0161_
*269 _0162_
*270 _0163_
*271 _0164_
*272 _0165_
*273 _0166_
*274 _0167_
*275 _0168_
*276 _0169_
*277 _0170_
*278 _0171_
*279 _0172_
*280 _0173_
*281 _0174_
*282 _0175_
*283 _0176_
*284 _0177_
*285 _0178_
*286 _0179_
*287 _0180_
*288 _0181_
*289 _0182_
*290 _0183_
*291 _0184_
*292 _0185_
*293 _0186_
*294 _0187_
*295 _0188_
*296 _0189_
*297 _0190_
*298 _0191_
*299 _0192_
*300 _0193_
*301 _0194_
*302 _0195_
*303 _0196_
*304 _0197_
*305 _0198_
*306 _0199_
*307 _0200_
*308 _0201_
*309 _0202_
*310 _0203_
*311 _0204_
*312 _0205_
*313 _0206_
*314 _0207_
*315 _0208_
*316 _0209_
*317 _0210_
*318 _0211_
*319 _0212_
*320 _0213_
*321 _0214_
*322 _0215_
*323 _0216_
*324 _0217_
*325 _0218_
*326 _0219_
*327 _0220_
*328 _0221_
*329 _0222_
*330 _0223_
*331 _0224_
*332 _0225_
*333 _0226_
*334 _0227_
*335 _0228_
*336 _0229_
*337 _0230_
*338 _0231_
*339 _0232_
*340 _0233_
*341 _0234_
*342 _0235_
*343 _0236_
*344 _0237_
*345 _0238_
*346 _0239_
*347 _0240_
*348 _0241_
*349 _0242_
*350 _0243_
*351 _0244_
*352 _0245_
*353 _0246_
*354 _0247_
*355 _0248_
*356 _0249_
*357 _0250_
*358 _0251_
*359 _0252_
*360 _0253_
*361 _0254_
*362 _0255_
*363 _0256_
*364 _0257_
*365 _0258_
*366 _0259_
*367 _0260_
*368 _0261_
*369 _0262_
*370 _0263_
*371 _0264_
*372 _0265_
*373 _0266_
*374 _0267_
*375 _0268_
*376 _0269_
*377 _0270_
*378 _0271_
*379 _0272_
*380 _0273_
*381 _0274_
*382 _0275_
*383 _0276_
*384 _0277_
*385 _0278_
*386 _0279_
*387 _0280_
*388 _0281_
*389 _0282_
*390 _0283_
*391 _0284_
*392 _0285_
*393 _0286_
*394 _0287_
*395 _0288_
*396 _0289_
*397 _0290_
*398 _0291_
*399 _0292_
*400 _0293_
*401 _0294_
*402 _0295_
*403 _0296_
*404 _0297_
*405 _0298_
*406 _0299_
*407 _0300_
*408 _0301_
*409 _0302_
*410 _0303_
*411 _0304_
*412 _0305_
*413 _0306_
*414 _0307_
*415 _0308_
*416 _0309_
*417 _0310_
*418 _0311_
*419 _0312_
*420 _0313_
*421 _0314_
*422 _0315_
*423 _0316_
*424 _0317_
*425 _0318_
*426 _0319_
*427 _0320_
*428 _0321_
*429 _0322_
*430 _0323_
*431 _0324_
*432 _0325_
*433 _0326_
*434 _0327_
*435 _0328_
*436 _0329_
*437 _0330_
*438 _0331_
*439 _0332_
*440 _0333_
*441 _0334_
*442 _0335_
*443 _0336_
*444 _0337_
*445 _0338_
*446 _0339_
*447 _0340_
*448 _0341_
*449 _0342_
*450 _0343_
*451 _0344_
*452 _0345_
*453 _0346_
*454 _0347_
*455 _0348_
*456 _0349_
*457 _0350_
*458 _0351_
*459 _0352_
*460 _0353_
*461 _0354_
*462 _0355_
*463 _0356_
*464 _0357_
*465 _0358_
*466 _0359_
*467 _0360_
*468 _0361_
*469 _0362_
*470 _0363_
*471 _0364_
*472 _0365_
*473 _0366_
*474 _0367_
*475 _0368_
*476 _0369_
*477 _0370_
*478 _0371_
*479 _0372_
*480 _0373_
*481 _0374_
*482 _0375_
*483 _0376_
*484 _0377_
*485 _0378_
*486 _0379_
*487 _0380_
*488 _0381_
*489 _0382_
*490 _0383_
*491 _0384_
*492 _0385_
*493 _0386_
*494 _0387_
*495 _0388_
*496 _0389_
*497 _0390_
*498 _0391_
*499 _0392_
*500 _0393_
*501 _0394_
*502 _0395_
*503 _0396_
*504 _0397_
*505 _0398_
*506 _0399_
*507 _0400_
*508 _0401_
*509 _0402_
*510 _0403_
*511 _0404_
*512 _0405_
*513 _0406_
*514 _0407_
*515 _0408_
*516 _0409_
*517 _0410_
*518 _0411_
*519 _0412_
*520 _0413_
*521 _0414_
*522 _0415_
*523 _0416_
*524 _0417_
*525 _0418_
*526 _0419_
*527 _0420_
*528 _0421_
*529 _0422_
*530 _0423_
*531 _0424_
*532 _0425_
*533 _0426_
*534 _0427_
*535 _0428_
*536 _0429_
*537 _0430_
*538 _0431_
*539 _0432_
*540 _0433_
*541 _0434_
*542 _0435_
*543 _0436_
*544 _0437_
*545 _0438_
*546 _0439_
*547 _0440_
*548 _0441_
*549 _0442_
*550 _0443_
*551 _0444_
*552 _0445_
*553 _0446_
*554 _0447_
*555 _0448_
*556 _0449_
*557 _0450_
*558 _0451_
*559 _0452_
*560 _0453_
*561 _0454_
*562 _0455_
*563 _0456_
*564 _0457_
*565 _0458_
*566 _0459_
*567 _0460_
*568 _0461_
*569 _0462_
*570 _0463_
*571 _0464_
*572 _0465_
*573 _0466_
*574 _0467_
*575 _0468_
*576 _0469_
*577 _0470_
*578 _0471_
*579 _0472_
*580 _0473_
*581 _0474_
*582 _0475_
*583 _0476_
*584 _0477_
*585 _0478_
*586 _0479_
*587 _0480_
*588 _0481_
*589 _0482_
*590 _0483_
*591 _0484_
*592 _0485_
*593 _0486_
*594 _0487_
*595 _0488_
*596 _0489_
*597 _0490_
*598 _0491_
*599 _0492_
*600 _0493_
*601 _0494_
*602 _0495_
*603 _0496_
*604 _0497_
*605 _0498_
*606 _0499_
*607 _0500_
*608 _0501_
*609 _0502_
*610 _0503_
*611 _0504_
*612 _0505_
*613 _0506_
*614 _0507_
*615 _0508_
*616 _0509_
*617 _0510_
*618 _0511_
*619 _0512_
*620 _0513_
*621 _0514_
*622 _0515_
*623 _0516_
*624 _0517_
*625 _0518_
*626 _0519_
*627 _0520_
*628 _0521_
*629 _0522_
*630 _0523_
*631 _0524_
*632 _0525_
*633 _0526_
*634 _0527_
*635 _0528_
*636 _0529_
*637 _0530_
*638 _0531_
*639 _0532_
*640 _0533_
*641 _0534_
*642 _0535_
*643 _0536_
*644 _0537_
*645 _0538_
*646 _0539_
*647 _0540_
*648 _0541_
*649 _0542_
*650 _0543_
*651 _0544_
*652 _0545_
*653 _0546_
*654 _0547_
*655 _0548_
*656 _0549_
*657 _0550_
*658 _0551_
*659 _0552_
*660 _0553_
*661 _0554_
*662 _0555_
*663 _0556_
*664 _0557_
*665 _0558_
*666 _0559_
*667 _0560_
*668 _0561_
*669 _0562_
*670 _0563_
*671 _0564_
*672 _0565_
*673 _0566_
*674 _0567_
*675 _0568_
*676 _0569_
*677 _0570_
*678 _0571_
*679 _0572_
*680 _0573_
*681 _0574_
*682 _0575_
*683 _0576_
*684 _0577_
*685 _0578_
*686 _0579_
*687 _0580_
*688 _0581_
*689 _0582_
*690 _0583_
*691 _0584_
*692 _0585_
*693 _0586_
*694 _0587_
*695 _0588_
*696 _0589_
*697 _0590_
*698 _0591_
*699 _0592_
*700 _0593_
*701 _0594_
*702 _0595_
*703 _0596_
*704 _0597_
*705 _0598_
*706 _0599_
*707 _0600_
*708 _0601_
*709 _0602_
*710 _0603_
*711 _0604_
*712 _0605_
*713 _0606_
*714 _0607_
*715 _0608_
*716 _0609_
*717 _0610_
*718 _0611_
*719 _0612_
*720 _0613_
*721 _0614_
*722 _0615_
*723 _0616_
*724 _0617_
*725 _0618_
*726 _0619_
*727 _0620_
*728 _0621_
*729 _0622_
*730 _0623_
*731 _0624_
*732 _0625_
*733 _0626_
*734 _0627_
*735 _0628_
*736 _0629_
*737 _0630_
*738 _0631_
*739 _0632_
*740 _0633_
*741 _0634_
*742 _0635_
*743 _0636_
*744 _0637_
*745 _0638_
*746 _0639_
*747 _0640_
*748 _0641_
*749 _0642_
*750 _0643_
*751 _0644_
*752 _0645_
*753 _0646_
*754 _0647_
*755 _0648_
*756 _0649_
*757 _0650_
*758 _0651_
*759 _0652_
*760 _0653_
*761 _0654_
*762 _0655_
*763 _0656_
*764 _0657_
*765 _0658_
*766 _0659_
*767 _0660_
*768 _0661_
*769 _0662_
*770 _0663_
*771 _0664_
*772 _0665_
*773 _0666_
*774 _0667_
*775 _0668_
*776 _0669_
*777 _0670_
*778 _0671_
*779 _0672_
*780 _0673_
*781 _0674_
*782 _0675_
*783 _0676_
*784 _0677_
*785 _0678_
*786 _0679_
*787 _0680_
*788 _0681_
*789 _0682_
*790 _0683_
*791 _0684_
*792 _0685_
*793 _0686_
*794 _0687_
*795 _0688_
*796 _0689_
*797 _0690_
*798 _0691_
*799 _0692_
*800 _0693_
*801 _0694_
*802 _0695_
*803 _0696_
*804 _0697_
*805 _0698_
*806 _0699_
*807 _0700_
*808 _0701_
*809 _0702_
*810 _0703_
*811 _0704_
*812 _0705_
*813 _0706_
*814 _0707_
*815 _0708_
*816 _0709_
*817 _0710_
*818 _0711_
*819 _0712_
*820 _0713_
*821 _0714_
*822 _0715_
*823 _0716_
*824 _0717_
*825 _0718_
*826 _0719_
*827 _0720_
*828 _0721_
*829 _0722_
*830 _0723_
*831 _0724_
*832 _0725_
*833 _0726_
*834 _0727_
*835 _0728_
*836 _0729_
*837 _0730_
*838 _0731_
*839 _0732_
*840 _0733_
*841 _0734_
*842 _0735_
*843 _0736_
*844 _0737_
*845 _0738_
*846 _0739_
*847 _0740_
*848 _0741_
*849 _0742_
*850 _0743_
*851 _0744_
*852 _0745_
*853 _0746_
*854 _0747_
*855 _0748_
*856 _0749_
*857 _0750_
*858 _0751_
*859 _0752_
*860 _0753_
*861 _0754_
*862 _0755_
*863 _0756_
*864 _0757_
*865 _0758_
*866 _0759_
*867 _0760_
*868 _0761_
*869 _0762_
*870 _0763_
*871 _0764_
*872 _0765_
*873 _0766_
*874 _0767_
*875 _0768_
*876 _0769_
*877 _0770_
*878 _0771_
*879 _0772_
*880 _0773_
*881 _0774_
*882 _0775_
*883 _0776_
*884 _0777_
*885 _0778_
*886 clknet_0_clk_i
*887 clknet_3_0__leaf_clk_i
*888 clknet_3_1__leaf_clk_i
*889 clknet_3_2__leaf_clk_i
*890 clknet_3_3__leaf_clk_i
*891 clknet_3_4__leaf_clk_i
*892 clknet_3_5__leaf_clk_i
*893 clknet_3_6__leaf_clk_i
*894 clknet_3_7__leaf_clk_i
*895 clock_enable
*896 current_dqsm
*897 current_nibble\[0\]
*898 current_nibble\[1\]
*899 current_nibble\[2\]
*900 latency_count\[0\]
*901 latency_count\[1\]
*902 latency_count\[2\]
*903 net1
*904 net10
*905 net100
*906 net101
*907 net102
*908 net103
*909 net104
*910 net105
*911 net106
*912 net107
*913 net109
*914 net11
*915 net110
*916 net111
*917 net112
*918 net113
*919 net114
*920 net115
*921 net116
*922 net117
*923 net118
*924 net119
*925 net12
*926 net120
*927 net121
*928 net122
*929 net123
*930 net124
*931 net125
*932 net126
*933 net127
*934 net128
*935 net129
*936 net13
*937 net130
*938 net131
*939 net132
*940 net133
*941 net134
*942 net135
*943 net136
*944 net137
*945 net138
*946 net139
*947 net14
*948 net140
*949 net141
*950 net142
*951 net143
*952 net144
*953 net145
*954 net146
*955 net147
*956 net148
*957 net149
*958 net15
*959 net150
*960 net151
*961 net152
*962 net153
*963 net154
*964 net155
*965 net156
*966 net157
*967 net158
*968 net159
*969 net16
*970 net160
*971 net161
*972 net162
*973 net163
*974 net164
*975 net165
*976 net166
*977 net167
*978 net168
*979 net169
*980 net17
*981 net170
*982 net171
*983 net172
*984 net173
*985 net174
*986 net175
*987 net176
*988 net177
*989 net178
*990 net179
*991 net18
*992 net180
*993 net181
*994 net182
*995 net183
*996 net184
*997 net185
*998 net186
*999 net187
*1000 net188
*1001 net189
*1002 net19
*1003 net190
*1004 net191
*1005 net192
*1006 net193
*1007 net194
*1008 net195
*1009 net196
*1010 net197
*1011 net198
*1012 net199
*1013 net2
*1014 net20
*1015 net200
*1016 net201
*1017 net202
*1018 net203
*1019 net204
*1020 net205
*1021 net206
*1022 net207
*1023 net208
*1024 net209
*1025 net21
*1026 net210
*1027 net211
*1028 net212
*1029 net213
*1030 net214
*1031 net215
*1032 net216
*1033 net217
*1034 net218
*1035 net219
*1036 net22
*1037 net220
*1038 net221
*1039 net222
*1040 net223
*1041 net224
*1042 net225
*1043 net226
*1044 net227
*1045 net228
*1046 net229
*1047 net23
*1048 net230
*1049 net231
*1050 net232
*1051 net233
*1052 net234
*1053 net235
*1054 net236
*1055 net237
*1056 net238
*1057 net239
*1058 net24
*1059 net240
*1060 net241
*1061 net242
*1062 net243
*1063 net244
*1064 net245
*1065 net246
*1066 net247
*1067 net248
*1068 net249
*1069 net25
*1070 net250
*1071 net251
*1072 net252
*1073 net253
*1074 net254
*1075 net255
*1076 net256
*1077 net257
*1078 net258
*1079 net259
*1080 net26
*1081 net260
*1082 net261
*1083 net262
*1084 net263
*1085 net264
*1086 net265
*1087 net266
*1088 net267
*1089 net268
*1090 net269
*1091 net27
*1092 net270
*1093 net271
*1094 net272
*1095 net273
*1096 net274
*1097 net275
*1098 net276
*1099 net277
*1100 net278
*1101 net279
*1102 net28
*1103 net280
*1104 net281
*1105 net282
*1106 net283
*1107 net284
*1108 net285
*1109 net286
*1110 net287
*1111 net288
*1112 net289
*1113 net29
*1114 net290
*1115 net291
*1116 net292
*1117 net293
*1118 net294
*1119 net295
*1120 net296
*1121 net297
*1122 net298
*1123 net299
*1124 net3
*1125 net30
*1126 net300
*1127 net301
*1128 net302
*1129 net303
*1130 net304
*1131 net305
*1132 net306
*1133 net307
*1134 net308
*1135 net309
*1136 net31
*1137 net310
*1138 net311
*1139 net312
*1140 net313
*1141 net314
*1142 net315
*1143 net316
*1144 net317
*1145 net318
*1146 net319
*1147 net32
*1148 net320
*1149 net321
*1150 net322
*1151 net323
*1152 net324
*1153 net325
*1154 net326
*1155 net327
*1156 net328
*1157 net329
*1158 net33
*1159 net330
*1160 net331
*1161 net332
*1162 net333
*1163 net334
*1164 net335
*1165 net336
*1166 net337
*1167 net338
*1168 net339
*1169 net34
*1170 net340
*1171 net341
*1172 net342
*1173 net343
*1174 net344
*1175 net345
*1176 net346
*1177 net347
*1178 net348
*1179 net349
*1180 net35
*1181 net350
*1182 net351
*1183 net352
*1184 net36
*1185 net37
*1186 net38
*1187 net39
*1188 net4
*1189 net40
*1190 net41
*1191 net42
*1192 net43
*1193 net44
*1194 net45
*1195 net46
*1196 net47
*1197 net48
*1198 net49
*1199 net5
*1200 net50
*1201 net51
*1202 net52
*1203 net53
*1204 net54
*1205 net55
*1206 net56
*1207 net57
*1208 net58
*1209 net59
*1210 net6
*1211 net60
*1212 net61
*1213 net62
*1214 net63
*1215 net64
*1216 net65
*1217 net66
*1218 net67
*1219 net68
*1220 net69
*1221 net7
*1222 net70
*1223 net71
*1224 net72
*1225 net73
*1226 net74
*1227 net75
*1228 net76
*1229 net77
*1230 net78
*1231 net79
*1232 net8
*1233 net80
*1234 net81
*1235 net82
*1236 net83
*1237 net84
*1238 net85
*1239 net86
*1240 net87
*1241 net88
*1242 net89
*1243 net9
*1244 net90
*1245 net91
*1246 net92
*1247 net93
*1248 net94
*1249 net95
*1250 net96
*1251 net97
*1252 net98
*1253 net99
*1254 pre_cycle\[0\]
*1255 pre_cycle\[1\]
*1256 read_buf\[0\]
*1257 read_buf\[10\]
*1258 read_buf\[11\]
*1259 read_buf\[12\]
*1260 read_buf\[13\]
*1261 read_buf\[14\]
*1262 read_buf\[15\]
*1263 read_buf\[16\]
*1264 read_buf\[17\]
*1265 read_buf\[18\]
*1266 read_buf\[19\]
*1267 read_buf\[1\]
*1268 read_buf\[20\]
*1269 read_buf\[21\]
*1270 read_buf\[22\]
*1271 read_buf\[23\]
*1272 read_buf\[24\]
*1273 read_buf\[25\]
*1274 read_buf\[26\]
*1275 read_buf\[27\]
*1276 read_buf\[28\]
*1277 read_buf\[29\]
*1278 read_buf\[2\]
*1279 read_buf\[30\]
*1280 read_buf\[31\]
*1281 read_buf\[3\]
*1282 read_buf\[4\]
*1283 read_buf\[5\]
*1284 read_buf\[6\]
*1285 read_buf\[7\]
*1286 read_buf\[8\]
*1287 read_buf\[9\]
*1288 read_byte\[0\]
*1289 read_byte\[1\]
*1290 read_byte\[2\]
*1291 read_word\[0\]
*1292 read_word\[1\]
*1293 read_word\[2\]
*1294 state\[0\]
*1295 state\[10\]
*1296 state\[11\]
*1297 state\[1\]
*1298 state\[2\]
*1299 state\[3\]
*1300 state\[4\]
*1301 state\[5\]
*1302 state\[6\]
*1303 state\[7\]
*1304 state\[8\]
*1305 state\[9\]
*1306 word_ready
*1307 write_buf\[0\]
*1308 write_buf\[10\]
*1309 write_buf\[11\]
*1310 write_buf\[12\]
*1311 write_buf\[13\]
*1312 write_buf\[14\]
*1313 write_buf\[15\]
*1314 write_buf\[16\]
*1315 write_buf\[17\]
*1316 write_buf\[18\]
*1317 write_buf\[19\]
*1318 write_buf\[1\]
*1319 write_buf\[20\]
*1320 write_buf\[21\]
*1321 write_buf\[22\]
*1322 write_buf\[23\]
*1323 write_buf\[24\]
*1324 write_buf\[25\]
*1325 write_buf\[26\]
*1326 write_buf\[27\]
*1327 write_buf\[28\]
*1328 write_buf\[29\]
*1329 write_buf\[2\]
*1330 write_buf\[30\]
*1331 write_buf\[31\]
*1332 write_buf\[3\]
*1333 write_buf\[4\]
*1334 write_buf\[5\]
*1335 write_buf\[6\]
*1336 write_buf\[7\]
*1337 write_buf\[8\]
*1338 write_buf\[9\]
*1339 write_byte\[0\]
*1340 write_byte\[1\]
*1341 write_byte\[2\]
*1342 write_word\[0\]
*1343 write_word\[1\]
*1344 write_word\[2\]
*1345 ANTENNA__0783__B
*1346 ANTENNA__0785__A
*1347 ANTENNA__0789__A
*1348 ANTENNA__0793__A
*1349 ANTENNA__0797__A
*1350 ANTENNA__0801__A
*1351 ANTENNA__0818__B
*1352 ANTENNA__0819__A
*1353 ANTENNA__0822__A
*1354 ANTENNA__0825__A
*1355 ANTENNA__0828__A
*1356 ANTENNA__0843__A
*1357 ANTENNA__0848__C_N
*1358 ANTENNA__0855__A1
*1359 ANTENNA__0857__A
*1360 ANTENNA__0858__B
*1361 ANTENNA__0863__B
*1362 ANTENNA__0872__B
*1363 ANTENNA__0872__C
*1364 ANTENNA__0873__A
*1365 ANTENNA__0875__A
*1366 ANTENNA__0876__B
*1367 ANTENNA__0878__A
*1368 ANTENNA__0884__A3
*1369 ANTENNA__0887__A
*1370 ANTENNA__0892__B
*1371 ANTENNA__0895__A
*1372 ANTENNA__0896__B
*1373 ANTENNA__0898__B
*1374 ANTENNA__0901__A
*1375 ANTENNA__0903__A
*1376 ANTENNA__0913__B
*1377 ANTENNA__0915__A2
*1378 ANTENNA__0917__A
*1379 ANTENNA__0924__A
*1380 ANTENNA__0925__A
*1381 ANTENNA__0926__A
*1382 ANTENNA__0926__B
*1383 ANTENNA__0926__C
*1384 ANTENNA__0927__A2
*1385 ANTENNA__0936__A
*1386 ANTENNA__0937__A
*1387 ANTENNA__0938__A1
*1388 ANTENNA__0945__A
*1389 ANTENNA__0946__A
*1390 ANTENNA__0952__C
*1391 ANTENNA__0967__A
*1392 ANTENNA__0981__A
*1393 ANTENNA__0983__A
*1394 ANTENNA__0985__A
*1395 ANTENNA__0987__A
*1396 ANTENNA__1004__B1
*1397 ANTENNA__1005__B
*1398 ANTENNA__1008__A
*1399 ANTENNA__1014__1_A
*1400 ANTENNA__1015__A
*1401 ANTENNA__1016__A
*1402 ANTENNA__1017__A
*1403 ANTENNA__1018__A
*1404 ANTENNA__1019__A
*1405 ANTENNA__1020__A
*1406 ANTENNA__1021__A
*1407 ANTENNA__1022__A
*1408 ANTENNA__1023__A
*1409 ANTENNA__1024__A
*1410 ANTENNA__1025__A
*1411 ANTENNA__1026__A
*1412 ANTENNA__1027__A
*1413 ANTENNA__1028__A
*1414 ANTENNA__1029__A
*1415 ANTENNA__1030__B
*1416 ANTENNA__1031__A2
*1417 ANTENNA__1033__A
*1418 ANTENNA__1034__A
*1419 ANTENNA__1037__B
*1420 ANTENNA__1038__A2
*1421 ANTENNA__1041__B
*1422 ANTENNA__1042__A2
*1423 ANTENNA__1045__B
*1424 ANTENNA__1046__A2
*1425 ANTENNA__1049__B
*1426 ANTENNA__1050__A2
*1427 ANTENNA__1053__B
*1428 ANTENNA__1054__A2
*1429 ANTENNA__1057__B
*1430 ANTENNA__1058__A2
*1431 ANTENNA__1061__B
*1432 ANTENNA__1062__A2
*1433 ANTENNA__1065__A
*1434 ANTENNA__1091__A
*1435 ANTENNA__1092__A
*1436 ANTENNA__1116__A
*1437 ANTENNA__1119__A
*1438 ANTENNA__1122__A
*1439 ANTENNA__1125__A
*1440 ANTENNA__1128__A
*1441 ANTENNA__1131__A
*1442 ANTENNA__1134__A
*1443 ANTENNA__1137__A
*1444 ANTENNA__1144__B1
*1445 ANTENNA__1154__A
*1446 ANTENNA__1155__B
*1447 ANTENNA__1165__B
*1448 ANTENNA__1169__B
*1449 ANTENNA__1174__A
*1450 ANTENNA__1176__C
*1451 ANTENNA__1177__A
*1452 ANTENNA__1179__C
*1453 ANTENNA__1187__B
*1454 ANTENNA__1197__B
*1455 ANTENNA__1199__C1
*1456 ANTENNA__1203__S
*1457 ANTENNA__1204__C
*1458 ANTENNA__1205__A
*1459 ANTENNA__1206__B
*1460 ANTENNA__1212__B1
*1461 ANTENNA__1222__B
*1462 ANTENNA__1232__B
*1463 ANTENNA__1235__B
*1464 ANTENNA__1244__B
*1465 ANTENNA__1250__B
*1466 ANTENNA__1258__B
*1467 ANTENNA__1264__B
*1468 ANTENNA__1270__B
*1469 ANTENNA__1272__C1
*1470 ANTENNA__1275__S
*1471 ANTENNA__1277__A
*1472 ANTENNA__1280__S
*1473 ANTENNA__1283__A
*1474 ANTENNA__1292__B
*1475 ANTENNA__1296__B
*1476 ANTENNA__1302__B
*1477 ANTENNA__1306__B
*1478 ANTENNA__1311__A
*1479 ANTENNA__1313__C
*1480 ANTENNA__1314__A
*1481 ANTENNA__1316__C
*1482 ANTENNA__1323__B
*1483 ANTENNA__1331__B
*1484 ANTENNA__1333__C1
*1485 ANTENNA__1336__S
*1486 ANTENNA__1338__A1
*1487 ANTENNA__1349__B
*1488 ANTENNA__1359__B
*1489 ANTENNA__1362__B
*1490 ANTENNA__1371__B
*1491 ANTENNA__1377__B
*1492 ANTENNA__1385__B
*1493 ANTENNA__1389__C
*1494 ANTENNA__1391__B
*1495 ANTENNA__1397__B
*1496 ANTENNA__1399__C1
*1497 ANTENNA__1402__S
*1498 ANTENNA__1404__S
*1499 ANTENNA__1408__S
*1500 ANTENNA__1411__A
*1501 ANTENNA__1417__C
*1502 ANTENNA__1496__B
*1503 ANTENNA__1501__A1
*1504 ANTENNA__1502__A1
*1505 ANTENNA__1514__A
*1506 ANTENNA__1517__A2
*1507 ANTENNA__1565__RESET_B
*1508 ANTENNA__1566__CLK
*1509 ANTENNA__1568__CLK
*1510 ANTENNA__1568__RESET_B
*1511 ANTENNA__1572__RESET_B
*1512 ANTENNA__1573__RESET_B
*1513 ANTENNA__1574__RESET_B
*1514 ANTENNA__1582__CLK
*1515 ANTENNA__1583__CLK
*1516 ANTENNA__1584__CLK
*1517 ANTENNA__1594__CLK
*1518 ANTENNA__1595__CLK
*1519 ANTENNA__1596__CLK
*1520 ANTENNA__1597__RESET_B
*1521 ANTENNA__1598__CLK
*1522 ANTENNA__1617__CLK
*1523 ANTENNA__1618__CLK
*1524 ANTENNA__1621__CLK
*1525 ANTENNA__1631__CLK
*1526 ANTENNA__1641__CLK
*1527 ANTENNA__1642__CLK
*1528 ANTENNA__1645__CLK
*1529 ANTENNA__1646__CLK
*1530 ANTENNA__1683__RESET_B
*1531 ANTENNA__1684__RESET_B
*1532 ANTENNA__1685__CLK
*1533 ANTENNA__1685__RESET_B
*1534 ANTENNA__1687__CLK
*1535 ANTENNA__1687__RESET_B
*1536 ANTENNA__1688__CLK
*1537 ANTENNA__1688__RESET_B
*1538 ANTENNA__1689__CLK
*1539 ANTENNA__1689__RESET_B
*1540 ANTENNA__1690__CLK
*1541 ANTENNA__1690__RESET_B
*1542 ANTENNA__1693__RESET_B
*1543 ANTENNA__1694__RESET_B
*1544 ANTENNA__1695__RESET_B
*1545 ANTENNA__1696__RESET_B
*1546 ANTENNA_clkbuf_3_0__f_clk_i_A
*1547 ANTENNA_clkbuf_3_1__f_clk_i_A
*1548 ANTENNA_clkbuf_3_2__f_clk_i_A
*1549 ANTENNA_clkbuf_3_3__f_clk_i_A
*1550 ANTENNA_clkbuf_3_4__f_clk_i_A
*1551 ANTENNA_clkbuf_3_5__f_clk_i_A
*1552 ANTENNA_clkbuf_3_6__f_clk_i_A
*1553 ANTENNA_clkbuf_3_7__f_clk_i_A
*1554 ANTENNA_fanout103_A
*1555 ANTENNA_fanout104_A
*1556 ANTENNA_fanout105_A
*1557 ANTENNA_fanout106_A
*1558 ANTENNA_fanout107_A
*1559 ANTENNA_hold156_A
*1560 ANTENNA_hold215_A
*1561 ANTENNA_hold234_A
*1562 ANTENNA_hold241_A
*1563 ANTENNA_hold85_A
*1564 ANTENNA_hold88_A
*1565 ANTENNA_output63_A
*1566 ANTENNA_output64_A
*1567 ANTENNA_output65_A
*1568 ANTENNA_output66_A
*1569 ANTENNA_output68_A
*1570 ANTENNA_output93_A
*1571 ANTENNA_output94_A
*1572 ANTENNA_output95_A
*1573 FILLER_0_0_101
*1574 FILLER_0_0_109
*1575 FILLER_0_0_11
*1576 FILLER_0_0_113
*1577 FILLER_0_0_129
*1578 FILLER_0_0_137
*1579 FILLER_0_0_141
*1580 FILLER_0_0_153
*1581 FILLER_0_0_165
*1582 FILLER_0_0_169
*1583 FILLER_0_0_177
*1584 FILLER_0_0_182
*1585 FILLER_0_0_194
*1586 FILLER_0_0_197
*1587 FILLER_0_0_209
*1588 FILLER_0_0_221
*1589 FILLER_0_0_225
*1590 FILLER_0_0_243
*1591 FILLER_0_0_251
*1592 FILLER_0_0_253
*1593 FILLER_0_0_265
*1594 FILLER_0_0_277
*1595 FILLER_0_0_281
*1596 FILLER_0_0_29
*1597 FILLER_0_0_3
*1598 FILLER_0_0_303
*1599 FILLER_0_0_307
*1600 FILLER_0_0_309
*1601 FILLER_0_0_321
*1602 FILLER_0_0_33
*1603 FILLER_0_0_333
*1604 FILLER_0_0_337
*1605 FILLER_0_0_345
*1606 FILLER_0_0_357
*1607 FILLER_0_0_363
*1608 FILLER_0_0_365
*1609 FILLER_0_0_377
*1610 FILLER_0_0_389
*1611 FILLER_0_0_393
*1612 FILLER_0_0_411
*1613 FILLER_0_0_415
*1614 FILLER_0_0_419
*1615 FILLER_0_0_421
*1616 FILLER_0_0_433
*1617 FILLER_0_0_445
*1618 FILLER_0_0_45
*1619 FILLER_0_0_453
*1620 FILLER_0_0_465
*1621 FILLER_0_0_473
*1622 FILLER_0_0_477
*1623 FILLER_0_0_489
*1624 FILLER_0_0_501
*1625 FILLER_0_0_521
*1626 FILLER_0_0_529
*1627 FILLER_0_0_53
*1628 FILLER_0_0_533
*1629 FILLER_0_0_545
*1630 FILLER_0_0_557
*1631 FILLER_0_0_565
*1632 FILLER_0_0_57
*1633 FILLER_0_0_577
*1634 FILLER_0_0_585
*1635 FILLER_0_0_589
*1636 FILLER_0_0_597
*1637 FILLER_0_0_617
*1638 FILLER_0_0_65
*1639 FILLER_0_0_85
*1640 FILLER_0_0_89
*1641 FILLER_0_100_109
*1642 FILLER_0_100_121
*1643 FILLER_0_100_133
*1644 FILLER_0_100_139
*1645 FILLER_0_100_141
*1646 FILLER_0_100_15
*1647 FILLER_0_100_153
*1648 FILLER_0_100_165
*1649 FILLER_0_100_177
*1650 FILLER_0_100_189
*1651 FILLER_0_100_195
*1652 FILLER_0_100_197
*1653 FILLER_0_100_209
*1654 FILLER_0_100_221
*1655 FILLER_0_100_233
*1656 FILLER_0_100_245
*1657 FILLER_0_100_251
*1658 FILLER_0_100_253
*1659 FILLER_0_100_265
*1660 FILLER_0_100_27
*1661 FILLER_0_100_277
*1662 FILLER_0_100_289
*1663 FILLER_0_100_29
*1664 FILLER_0_100_3
*1665 FILLER_0_100_301
*1666 FILLER_0_100_307
*1667 FILLER_0_100_309
*1668 FILLER_0_100_321
*1669 FILLER_0_100_333
*1670 FILLER_0_100_345
*1671 FILLER_0_100_357
*1672 FILLER_0_100_363
*1673 FILLER_0_100_365
*1674 FILLER_0_100_377
*1675 FILLER_0_100_389
*1676 FILLER_0_100_401
*1677 FILLER_0_100_41
*1678 FILLER_0_100_413
*1679 FILLER_0_100_419
*1680 FILLER_0_100_421
*1681 FILLER_0_100_433
*1682 FILLER_0_100_445
*1683 FILLER_0_100_457
*1684 FILLER_0_100_469
*1685 FILLER_0_100_475
*1686 FILLER_0_100_477
*1687 FILLER_0_100_489
*1688 FILLER_0_100_501
*1689 FILLER_0_100_513
*1690 FILLER_0_100_525
*1691 FILLER_0_100_53
*1692 FILLER_0_100_531
*1693 FILLER_0_100_533
*1694 FILLER_0_100_545
*1695 FILLER_0_100_557
*1696 FILLER_0_100_569
*1697 FILLER_0_100_581
*1698 FILLER_0_100_587
*1699 FILLER_0_100_589
*1700 FILLER_0_100_601
*1701 FILLER_0_100_613
*1702 FILLER_0_100_65
*1703 FILLER_0_100_77
*1704 FILLER_0_100_83
*1705 FILLER_0_100_85
*1706 FILLER_0_100_97
*1707 FILLER_0_101_109
*1708 FILLER_0_101_113
*1709 FILLER_0_101_125
*1710 FILLER_0_101_137
*1711 FILLER_0_101_141
*1712 FILLER_0_101_153
*1713 FILLER_0_101_165
*1714 FILLER_0_101_169
*1715 FILLER_0_101_181
*1716 FILLER_0_101_19
*1717 FILLER_0_101_193
*1718 FILLER_0_101_197
*1719 FILLER_0_101_209
*1720 FILLER_0_101_221
*1721 FILLER_0_101_225
*1722 FILLER_0_101_23
*1723 FILLER_0_101_237
*1724 FILLER_0_101_249
*1725 FILLER_0_101_253
*1726 FILLER_0_101_265
*1727 FILLER_0_101_27
*1728 FILLER_0_101_277
*1729 FILLER_0_101_281
*1730 FILLER_0_101_29
*1731 FILLER_0_101_293
*1732 FILLER_0_101_305
*1733 FILLER_0_101_309
*1734 FILLER_0_101_321
*1735 FILLER_0_101_333
*1736 FILLER_0_101_337
*1737 FILLER_0_101_349
*1738 FILLER_0_101_361
*1739 FILLER_0_101_365
*1740 FILLER_0_101_377
*1741 FILLER_0_101_389
*1742 FILLER_0_101_393
*1743 FILLER_0_101_405
*1744 FILLER_0_101_41
*1745 FILLER_0_101_417
*1746 FILLER_0_101_421
*1747 FILLER_0_101_433
*1748 FILLER_0_101_445
*1749 FILLER_0_101_449
*1750 FILLER_0_101_461
*1751 FILLER_0_101_473
*1752 FILLER_0_101_488
*1753 FILLER_0_101_500
*1754 FILLER_0_101_505
*1755 FILLER_0_101_517
*1756 FILLER_0_101_529
*1757 FILLER_0_101_53
*1758 FILLER_0_101_533
*1759 FILLER_0_101_545
*1760 FILLER_0_101_557
*1761 FILLER_0_101_561
*1762 FILLER_0_101_57
*1763 FILLER_0_101_573
*1764 FILLER_0_101_585
*1765 FILLER_0_101_589
*1766 FILLER_0_101_601
*1767 FILLER_0_101_613
*1768 FILLER_0_101_617
*1769 FILLER_0_101_69
*1770 FILLER_0_101_81
*1771 FILLER_0_101_85
*1772 FILLER_0_101_97
*1773 FILLER_0_10_109
*1774 FILLER_0_10_121
*1775 FILLER_0_10_133
*1776 FILLER_0_10_139
*1777 FILLER_0_10_141
*1778 FILLER_0_10_15
*1779 FILLER_0_10_153
*1780 FILLER_0_10_165
*1781 FILLER_0_10_177
*1782 FILLER_0_10_189
*1783 FILLER_0_10_195
*1784 FILLER_0_10_197
*1785 FILLER_0_10_209
*1786 FILLER_0_10_221
*1787 FILLER_0_10_233
*1788 FILLER_0_10_245
*1789 FILLER_0_10_251
*1790 FILLER_0_10_253
*1791 FILLER_0_10_265
*1792 FILLER_0_10_27
*1793 FILLER_0_10_277
*1794 FILLER_0_10_289
*1795 FILLER_0_10_29
*1796 FILLER_0_10_3
*1797 FILLER_0_10_301
*1798 FILLER_0_10_307
*1799 FILLER_0_10_309
*1800 FILLER_0_10_321
*1801 FILLER_0_10_333
*1802 FILLER_0_10_345
*1803 FILLER_0_10_357
*1804 FILLER_0_10_363
*1805 FILLER_0_10_365
*1806 FILLER_0_10_377
*1807 FILLER_0_10_389
*1808 FILLER_0_10_401
*1809 FILLER_0_10_41
*1810 FILLER_0_10_413
*1811 FILLER_0_10_419
*1812 FILLER_0_10_421
*1813 FILLER_0_10_433
*1814 FILLER_0_10_445
*1815 FILLER_0_10_457
*1816 FILLER_0_10_469
*1817 FILLER_0_10_475
*1818 FILLER_0_10_477
*1819 FILLER_0_10_489
*1820 FILLER_0_10_501
*1821 FILLER_0_10_513
*1822 FILLER_0_10_525
*1823 FILLER_0_10_53
*1824 FILLER_0_10_531
*1825 FILLER_0_10_533
*1826 FILLER_0_10_545
*1827 FILLER_0_10_557
*1828 FILLER_0_10_569
*1829 FILLER_0_10_581
*1830 FILLER_0_10_587
*1831 FILLER_0_10_589
*1832 FILLER_0_10_601
*1833 FILLER_0_10_613
*1834 FILLER_0_10_65
*1835 FILLER_0_10_77
*1836 FILLER_0_10_83
*1837 FILLER_0_10_85
*1838 FILLER_0_10_97
*1839 FILLER_0_11_105
*1840 FILLER_0_11_111
*1841 FILLER_0_11_113
*1842 FILLER_0_11_125
*1843 FILLER_0_11_137
*1844 FILLER_0_11_149
*1845 FILLER_0_11_161
*1846 FILLER_0_11_167
*1847 FILLER_0_11_169
*1848 FILLER_0_11_181
*1849 FILLER_0_11_19
*1850 FILLER_0_11_193
*1851 FILLER_0_11_205
*1852 FILLER_0_11_217
*1853 FILLER_0_11_223
*1854 FILLER_0_11_225
*1855 FILLER_0_11_237
*1856 FILLER_0_11_249
*1857 FILLER_0_11_261
*1858 FILLER_0_11_273
*1859 FILLER_0_11_279
*1860 FILLER_0_11_281
*1861 FILLER_0_11_293
*1862 FILLER_0_11_305
*1863 FILLER_0_11_31
*1864 FILLER_0_11_317
*1865 FILLER_0_11_329
*1866 FILLER_0_11_335