*SPEF "ieee 1481-1999"
*DESIGN "wishbone_register_m"
*DATE "11:11:11 Fri 11 11, 1111"
*VENDOR "OpenRCX"
*PROGRAM "Parallel Extraction"
*VERSION "1.0"
*DESIGN_FLOW "NAME_SCOPE LOCAL" "PIN_CAP NONE"
*DIVIDER /
*DELIMITER :
*BUS_DELIMITER []
*T_UNIT 1 NS
*C_UNIT 1 PF
*R_UNIT 1 OHM
*L_UNIT 1 HENRY

*NAME_MAP
*1 access_read_mask_i[0]
*2 access_read_mask_i[10]
*3 access_read_mask_i[11]
*4 access_read_mask_i[12]
*5 access_read_mask_i[13]
*6 access_read_mask_i[14]
*7 access_read_mask_i[15]
*8 access_read_mask_i[16]
*9 access_read_mask_i[17]
*10 access_read_mask_i[18]
*11 access_read_mask_i[19]
*12 access_read_mask_i[1]
*13 access_read_mask_i[20]
*14 access_read_mask_i[21]
*15 access_read_mask_i[22]
*16 access_read_mask_i[23]
*17 access_read_mask_i[24]
*18 access_read_mask_i[25]
*19 access_read_mask_i[26]
*20 access_read_mask_i[27]
*21 access_read_mask_i[28]
*22 access_read_mask_i[29]
*23 access_read_mask_i[2]
*24 access_read_mask_i[30]
*25 access_read_mask_i[31]
*26 access_read_mask_i[3]
*27 access_read_mask_i[4]
*28 access_read_mask_i[5]
*29 access_read_mask_i[6]
*30 access_read_mask_i[7]
*31 access_read_mask_i[8]
*32 access_read_mask_i[9]
*33 access_write_mask_i[0]
*34 access_write_mask_i[10]
*35 access_write_mask_i[11]
*36 access_write_mask_i[12]
*37 access_write_mask_i[13]
*38 access_write_mask_i[14]
*39 access_write_mask_i[15]
*40 access_write_mask_i[16]
*41 access_write_mask_i[17]
*42 access_write_mask_i[18]
*43 access_write_mask_i[19]
*44 access_write_mask_i[1]
*45 access_write_mask_i[20]
*46 access_write_mask_i[21]
*47 access_write_mask_i[22]
*48 access_write_mask_i[23]
*49 access_write_mask_i[24]
*50 access_write_mask_i[25]
*51 access_write_mask_i[26]
*52 access_write_mask_i[27]
*53 access_write_mask_i[28]
*54 access_write_mask_i[29]
*55 access_write_mask_i[2]
*56 access_write_mask_i[30]
*57 access_write_mask_i[31]
*58 access_write_mask_i[3]
*59 access_write_mask_i[4]
*60 access_write_mask_i[5]
*61 access_write_mask_i[6]
*62 access_write_mask_i[7]
*63 access_write_mask_i[8]
*64 access_write_mask_i[9]
*65 reg_o[0]
*66 reg_o[10]
*67 reg_o[11]
*68 reg_o[12]
*69 reg_o[13]
*70 reg_o[14]
*71 reg_o[15]
*72 reg_o[16]
*73 reg_o[17]
*74 reg_o[18]
*75 reg_o[19]
*76 reg_o[1]
*77 reg_o[20]
*78 reg_o[21]
*79 reg_o[22]
*80 reg_o[23]
*81 reg_o[24]
*82 reg_o[25]
*83 reg_o[26]
*84 reg_o[27]
*85 reg_o[28]
*86 reg_o[29]
*87 reg_o[2]
*88 reg_o[30]
*89 net165
*90 reg_o[3]
*91 reg_o[4]
*92 reg_o[5]
*93 reg_o[6]
*94 reg_o[7]
*95 reg_o[8]
*96 reg_o[9]
*99 wb_clk_i
*100 wb_rst_i
*101 wbs_ack_o
*102 wbs_adr_i[0]
*103 wbs_adr_i[10]
*104 wbs_adr_i[11]
*105 wbs_adr_i[12]
*106 wbs_adr_i[13]
*107 wbs_adr_i[14]
*108 wbs_adr_i[15]
*109 wbs_adr_i[16]
*110 wbs_adr_i[17]
*111 wbs_adr_i[18]
*112 wbs_adr_i[19]
*113 wbs_adr_i[1]
*114 wbs_adr_i[20]
*115 wbs_adr_i[21]
*116 wbs_adr_i[22]
*117 wbs_adr_i[23]
*118 wbs_adr_i[24]
*119 wbs_adr_i[25]
*120 wbs_adr_i[26]
*121 wbs_adr_i[27]
*122 wbs_adr_i[28]
*123 wbs_adr_i[29]
*124 wbs_adr_i[2]
*125 wbs_adr_i[30]
*126 wbs_adr_i[31]
*127 wbs_adr_i[3]
*128 wbs_adr_i[4]
*129 wbs_adr_i[5]
*130 wbs_adr_i[6]
*131 wbs_adr_i[7]
*132 wbs_adr_i[8]
*133 wbs_adr_i[9]
*134 wbs_cyc_i
*135 wbs_dat_i[0]
*136 wbs_dat_i[10]
*137 wbs_dat_i[11]
*138 wbs_dat_i[12]
*139 wbs_dat_i[13]
*140 wbs_dat_i[14]
*141 wbs_dat_i[15]
*142 wbs_dat_i[16]
*143 wbs_dat_i[17]
*144 wbs_dat_i[18]
*145 wbs_dat_i[19]
*146 wbs_dat_i[1]
*147 wbs_dat_i[20]
*148 wbs_dat_i[21]
*149 wbs_dat_i[22]
*150 wbs_dat_i[23]
*151 wbs_dat_i[24]
*152 wbs_dat_i[25]
*153 wbs_dat_i[26]
*154 wbs_dat_i[27]
*155 wbs_dat_i[28]
*156 wbs_dat_i[29]
*157 wbs_dat_i[2]
*158 wbs_dat_i[30]
*159 wbs_dat_i[31]
*160 wbs_dat_i[3]
*161 wbs_dat_i[4]
*162 wbs_dat_i[5]
*163 wbs_dat_i[6]
*164 wbs_dat_i[7]
*165 wbs_dat_i[8]
*166 wbs_dat_i[9]
*167 wbs_dat_o[0]
*168 wbs_dat_o[10]
*169 wbs_dat_o[11]
*170 wbs_dat_o[12]
*171 wbs_dat_o[13]
*172 wbs_dat_o[14]
*173 wbs_dat_o[15]
*174 wbs_dat_o[16]
*175 wbs_dat_o[17]
*176 wbs_dat_o[18]
*177 wbs_dat_o[19]
*178 wbs_dat_o[1]
*179 wbs_dat_o[20]
*180 wbs_dat_o[21]
*181 wbs_dat_o[22]
*182 wbs_dat_o[23]
*183 wbs_dat_o[24]
*184 wbs_dat_o[25]
*185 wbs_dat_o[26]
*186 wbs_dat_o[27]
*187 wbs_dat_o[28]
*188 wbs_dat_o[29]
*189 wbs_dat_o[2]
*190 wbs_dat_o[30]
*191 net166
*192 wbs_dat_o[3]
*193 wbs_dat_o[4]
*194 wbs_dat_o[5]
*195 wbs_dat_o[6]
*196 wbs_dat_o[7]
*197 wbs_dat_o[8]
*198 wbs_dat_o[9]
*199 wbs_sel_i[0]
*200 wbs_sel_i[1]
*201 wbs_sel_i[2]
*202 wbs_sel_i[3]
*203 wbs_stb_i
*204 wbs_we_i
*205 _000_
*206 _001_
*207 _002_
*208 _003_
*209 _004_
*210 _005_
*211 _006_
*212 _007_
*213 _008_
*214 _009_
*215 _010_
*216 _011_
*217 _012_
*218 _013_
*219 _014_
*220 _015_
*221 _016_
*222 _017_
*223 _018_
*224 _019_
*225 _020_
*226 _021_
*227 _022_
*228 _023_
*229 _024_
*230 _025_
*231 _026_
*232 _027_
*233 _028_
*234 _029_
*235 _030_
*236 _031_
*237 _032_
*238 _033_
*239 _034_
*240 _035_
*241 _036_
*242 _037_
*243 _038_
*244 _039_
*245 _040_
*246 _041_
*247 _042_
*248 _043_
*249 _044_
*250 _045_
*251 _046_
*252 _047_
*253 _048_
*254 _049_
*255 _050_
*256 _051_
*257 _052_
*258 _053_
*259 _054_
*260 _055_
*261 _056_
*262 _057_
*263 _058_
*264 _059_
*265 _060_
*266 _061_
*267 _062_
*268 _063_
*269 _064_
*270 _065_
*271 _066_
*272 _067_
*273 _068_
*274 _069_
*275 _070_
*276 _071_
*277 _072_
*278 _073_
*279 _074_
*280 _075_
*281 _076_
*282 _077_
*283 _078_
*284 _079_
*285 _080_
*286 _081_
*287 _082_
*288 _083_
*289 _084_
*290 _085_
*291 _086_
*292 _087_
*293 _088_
*294 _089_
*295 _090_
*296 _091_
*297 _092_
*298 _093_
*299 _094_
*300 clknet_0_wb_clk_i
*301 clknet_2_0__leaf_wb_clk_i
*302 clknet_2_1__leaf_wb_clk_i
*303 clknet_2_2__leaf_wb_clk_i
*304 clknet_2_3__leaf_wb_clk_i
*305 net1
*306 net10
*307 net100
*308 net101
*309 net102
*310 net103
*311 net104
*312 net105
*313 net106
*314 net107
*315 net108
*316 net109
*317 net11
*318 net110
*319 net111
*320 net112
*321 net113
*322 net114
*323 net115
*324 net116
*325 net117
*326 net118
*327 net119
*328 net12
*329 net120
*330 net121
*331 net122
*332 net123
*333 net124
*334 net125
*335 net126
*336 net127
*337 net128
*338 net129
*339 net13
*340 net130
*341 net131
*342 net132
*343 net133
*344 net134
*345 net135
*346 net136
*347 net137
*348 net138
*349 net139
*350 net14
*351 net140
*352 net141
*353 net142
*354 net143
*355 net144
*356 net145
*357 net146
*358 net147
*359 net148
*360 net149
*361 net15
*362 net150
*363 net151
*364 net152
*365 net153
*366 net154
*367 net155
*368 net156
*369 net157
*370 net158
*371 net159
*372 net16
*373 net160
*374 net161
*375 net162
*376 net163
*377 net164
*378 net167
*379 net168
*380 net169
*381 net17
*382 net170
*383 net171
*384 net172
*385 net173
*386 net174
*387 net175
*388 net176
*389 net177
*390 net178
*391 net179
*392 net18
*393 net180
*394 net181
*395 net182
*396 net183
*397 net184
*398 net185
*399 net186
*400 net187
*401 net188
*402 net189
*403 net19
*404 net190
*405 net191
*406 net192
*407 net193
*408 net194
*409 net195
*410 net196
*411 net197
*412 net198
*413 net199
*414 net2
*415 net20
*416 net200
*417 net201
*418 net202
*419 net203
*420 net204
*421 net205
*422 net206
*423 net207
*424 net208
*425 net209
*426 net21
*427 net210
*428 net211
*429 net212
*430 net213
*431 net214
*432 net215
*433 net216
*434 net217
*435 net218
*436 net219
*437 net22
*438 net220
*439 net221
*440 net222
*441 net223
*442 net224
*443 net225
*444 net226
*445 net227
*446 net228
*447 net229
*448 net23
*449 net230
*450 net231
*451 net232
*452 net233
*453 net234
*454 net235
*455 net236
*456 net237
*457 net238
*458 net239
*459 net24
*460 net240
*461 net241
*462 net242
*463 net243
*464 net244
*465 net245
*466 net246
*467 net247
*468 net248
*469 net249
*470 net25
*471 net250
*472 net251
*473 net252
*474 net253
*475 net254
*476 net255
*477 net256
*478 net257
*479 net258
*480 net259
*481 net26
*482 net260
*483 net261
*484 net27
*485 net28
*486 net29
*487 net3
*488 net30
*489 net31
*490 net32
*491 net33
*492 net34
*493 net35
*494 net36
*495 net37
*496 net38
*497 net39
*498 net4
*499 net40
*500 net41
*501 net42
*502 net43
*503 net44
*504 net45
*505 net46
*506 net47
*507 net48
*508 net49
*509 net5
*510 net50
*511 net51
*512 net52
*513 net53
*514 net54
*515 net55
*516 net56
*517 net57
*518 net58
*519 net59
*520 net6
*521 net60
*522 net61
*523 net62
*524 net63
*525 net64
*526 net65
*527 net66
*528 net67
*529 net68
*530 net69
*531 net7
*532 net70
*533 net71
*534 net72
*535 net73
*536 net74
*537 net75
*538 net76
*539 net77
*540 net78
*541 net79
*542 net8
*543 net80
*544 net81
*545 net82
*546 net83
*547 net84
*548 net85
*549 net86
*550 net87
*551 net88
*552 net89
*553 net9
*554 net90
*555 net91
*556 net92
*557 net93
*558 net94
*559 net95
*560 net96
*561 net97
*562 net98
*563 net99
*564 ANTENNA__095__A
*565 ANTENNA__096__D
*566 ANTENNA__098__A0
*567 ANTENNA__100__A0
*568 ANTENNA__102__A0
*569 ANTENNA__104__A0
*570 ANTENNA__106__A0
*571 ANTENNA__108__A0
*572 ANTENNA__110__A0
*573 ANTENNA__112__A0
*574 ANTENNA__114__A0
*575 ANTENNA__114__S
*576 ANTENNA__116__A0
*577 ANTENNA__116__S
*578 ANTENNA__118__A0
*579 ANTENNA__118__S
*580 ANTENNA__120__A0
*581 ANTENNA__122__S
*582 ANTENNA__126__A0
*583 ANTENNA__128__A0
*584 ANTENNA__130__A0
*585 ANTENNA__132__A0
*586 ANTENNA__136__A0
*587 ANTENNA__138__S
*588 ANTENNA__140__A0
*589 ANTENNA__140__S
*590 ANTENNA__142__S
*591 ANTENNA__144__A0
*592 ANTENNA__144__S
*593 ANTENNA__146__A0
*594 ANTENNA__146__S
*595 ANTENNA__148__S
*596 ANTENNA__150__A0
*597 ANTENNA__150__S
*598 ANTENNA__152__S
*599 ANTENNA__154__A0
*600 ANTENNA__154__S
*601 ANTENNA__156__A0
*602 ANTENNA__156__S
*603 ANTENNA__158__S
*604 ANTENNA__161__A
*605 ANTENNA__162__A
*606 ANTENNA__164__A
*607 ANTENNA__166__A
*608 ANTENNA__167__A
*609 ANTENNA__169__A
*610 ANTENNA__171__A
*611 ANTENNA__173__A
*612 ANTENNA__174__A
*613 ANTENNA__175__A
*614 ANTENNA__176__A
*615 ANTENNA__179__A
*616 ANTENNA__180__A
*617 ANTENNA__181__A
*618 ANTENNA__182__A
*619 ANTENNA__183__A
*620 ANTENNA__184__A
*621 ANTENNA__185__A
*622 ANTENNA__186__A
*623 ANTENNA__187__A
*624 ANTENNA__188__A
*625 ANTENNA__189__A
*626 ANTENNA__190__A
*627 ANTENNA__191__A
*628 ANTENNA__192__A
*629 ANTENNA__193__A
*630 ANTENNA__194__A
*631 ANTENNA__195__A
*632 ANTENNA__196__A
*633 ANTENNA__197__A
*634 ANTENNA__198__A
*635 ANTENNA__199__A
*636 ANTENNA__200__A
*637 ANTENNA__217__A
*638 ANTENNA__218__A
*639 ANTENNA__219__A
*640 ANTENNA__220__A
*641 ANTENNA_fanout161_A
*642 ANTENNA_fanout163_A
*643 ANTENNA_hold94_A
*644 ANTENNA_output100_A
*645 ANTENNA_output102_A
*646 ANTENNA_output103_A
*647 ANTENNA_output104_A
*648 ANTENNA_output105_A
*649 ANTENNA_output108_A
*650 ANTENNA_output109_A
*651 ANTENNA_output110_A
*652 ANTENNA_output111_A
*653 ANTENNA_output112_A
*654 ANTENNA_output113_A
*655 ANTENNA_output114_A
*656 ANTENNA_output115_A
*657 ANTENNA_output116_A
*658 ANTENNA_output117_A
*659 ANTENNA_output118_A
*660 ANTENNA_output119_A
*661 ANTENNA_output120_A
*662 ANTENNA_output121_A
*663 ANTENNA_output123_A
*664 ANTENNA_output125_A
*665 ANTENNA_output126_A
*666 ANTENNA_output128_A
*667 ANTENNA_output129_A
*668 ANTENNA_output132_A
*669 ANTENNA_output137_A
*670 ANTENNA_output160_A
*671 FILLER_0_0_133
*672 FILLER_0_0_139
*673 FILLER_0_0_141
*674 FILLER_0_0_153
*675 FILLER_0_0_165
*676 FILLER_0_0_169
*677 FILLER_0_0_177
*678 FILLER_0_0_197
*679 FILLER_0_0_205
*680 FILLER_0_0_241
*681 FILLER_0_0_249
*682 FILLER_0_0_269
*683 FILLER_0_0_277
*684 FILLER_0_0_297
*685 FILLER_0_0_3
*686 FILLER_0_10_10
*687 FILLER_0_10_116
*688 FILLER_0_10_128
*689 FILLER_0_10_141
*690 FILLER_0_10_153
*691 FILLER_0_10_165
*692 FILLER_0_10_177
*693 FILLER_0_10_18
*694 FILLER_0_10_189
*695 FILLER_0_10_195
*696 FILLER_0_10_197
*697 FILLER_0_10_209
*698 FILLER_0_10_221
*699 FILLER_0_10_233
*700 FILLER_0_10_245
*701 FILLER_0_10_251
*702 FILLER_0_10_253
*703 FILLER_0_10_265
*704 FILLER_0_10_277
*705 FILLER_0_10_34
*706 FILLER_0_10_43
*707 FILLER_0_10_67
*708 FILLER_0_10_82
*709 FILLER_0_10_98
*710 FILLER_0_11_121
*711 FILLER_0_11_133
*712 FILLER_0_11_145
*713 FILLER_0_11_157
*714 FILLER_0_11_165
*715 FILLER_0_11_169
*716 FILLER_0_11_181
*717 FILLER_0_11_193
*718 FILLER_0_11_205
*719 FILLER_0_11_217
*720 FILLER_0_11_223
*721 FILLER_0_11_225
*722 FILLER_0_11_237
*723 FILLER_0_11_249
*724 FILLER_0_11_261
*725 FILLER_0_11_27
*726 FILLER_0_11_273
*727 FILLER_0_11_277
*728 FILLER_0_11_281
*729 FILLER_0_11_33
*730 FILLER_0_11_37
*731 FILLER_0_11_46
*732 FILLER_0_11_55
*733 FILLER_0_12_112
*734 FILLER_0_12_116
*735 FILLER_0_12_124
*736 FILLER_0_12_136
*737 FILLER_0_12_141
*738 FILLER_0_12_153
*739 FILLER_0_12_165
*740 FILLER_0_12_177
*741 FILLER_0_12_18
*742 FILLER_0_12_189
*743 FILLER_0_12_195
*744 FILLER_0_12_197
*745 FILLER_0_12_209
*746 FILLER_0_12_221
*747 FILLER_0_12_233
*748 FILLER_0_12_24
*749 FILLER_0_12_245
*750 FILLER_0_12_251
*751 FILLER_0_12_253
*752 FILLER_0_12_265
*753 FILLER_0_12_277
*754 FILLER_0_12_29
*755 FILLER_0_12_33
*756 FILLER_0_12_36
*757 FILLER_0_12_50
*758 FILLER_0_12_74
*759 FILLER_0_13_113
*760 FILLER_0_13_117
*761 FILLER_0_13_121
*762 FILLER_0_13_133
*763 FILLER_0_13_139
*764 FILLER_0_13_145
*765 FILLER_0_13_15
*766 FILLER_0_13_157
*767 FILLER_0_13_165
*768 FILLER_0_13_169
*769 FILLER_0_13_181
*770 FILLER_0_13_19
*771 FILLER_0_13_193
*772 FILLER_0_13_205
*773 FILLER_0_13_217
*774 FILLER_0_13_223
*775 FILLER_0_13_225
*776 FILLER_0_13_23
*777 FILLER_0_13_237
*778 FILLER_0_13_249
*779 FILLER_0_13_261
*780 FILLER_0_13_273
*781 FILLER_0_13_279
*782 FILLER_0_13_281
*783 FILLER_0_13_293
*784 FILLER_0_13_31
*785 FILLER_0_13_35
*786 FILLER_0_13_85
*787 FILLER_0_14_128
*788 FILLER_0_14_13
*789 FILLER_0_14_141
*790 FILLER_0_14_153
*791 FILLER_0_14_165
*792 FILLER_0_14_177
*793 FILLER_0_14_189
*794 FILLER_0_14_195
*795 FILLER_0_14_197
*796 FILLER_0_14_209
*797 FILLER_0_14_221
*798 FILLER_0_14_233
*799 FILLER_0_14_245
*800 FILLER_0_14_25
*801 FILLER_0_14_251
*802 FILLER_0_14_253
*803 FILLER_0_14_265
*804 FILLER_0_14_277
*805 FILLER_0_14_29
*806 FILLER_0_14_37
*807 FILLER_0_14_65
*808 FILLER_0_14_77
*809 FILLER_0_14_81
*810 FILLER_0_14_85
*811 FILLER_0_14_9
*812 FILLER_0_15_110
*813 FILLER_0_15_141
*814 FILLER_0_15_153
*815 FILLER_0_15_164
*816 FILLER_0_15_169
*817 FILLER_0_15_181
*818 FILLER_0_15_193
*819 FILLER_0_15_205
*820 FILLER_0_15_21
*821 FILLER_0_15_217
*822 FILLER_0_15_223
*823 FILLER_0_15_225
*824 FILLER_0_15_237
*825 FILLER_0_15_249
*826 FILLER_0_15_261
*827 FILLER_0_15_273
*828 FILLER_0_15_279
*829 FILLER_0_15_281
*830 FILLER_0_15_33
*831 FILLER_0_15_38
*832 FILLER_0_15_72
*833 FILLER_0_15_9
*834 FILLER_0_15_93
*835 FILLER_0_16_103
*836 FILLER_0_16_136
*837 FILLER_0_16_146
*838 FILLER_0_16_158
*839 FILLER_0_16_170
*840 FILLER_0_16_182
*841 FILLER_0_16_194
*842 FILLER_0_16_197
*843 FILLER_0_16_209
*844 FILLER_0_16_21
*845 FILLER_0_16_221
*846 FILLER_0_16_233
*847 FILLER_0_16_245
*848 FILLER_0_16_251
*849 FILLER_0_16_253
*850 FILLER_0_16_265
*851 FILLER_0_16_27
*852 FILLER_0_16_277
*853 FILLER_0_16_289
*854 FILLER_0_16_29
*855 FILLER_0_16_297
*856 FILLER_0_16_82
*857 FILLER_0_16_9
*858 FILLER_0_16_90
*859 FILLER_0_16_99
*860 FILLER_0_17_102
*861 FILLER_0_17_106
*862 FILLER_0_17_113
*863 FILLER_0_17_141
*864 FILLER_0_17_153
*865 FILLER_0_17_165
*866 FILLER_0_17_169
*867 FILLER_0_17_177
*868 FILLER_0_17_181
*869 FILLER_0_17_193
*870 FILLER_0_17_205
*871 FILLER_0_17_21
*872 FILLER_0_17_217
*873 FILLER_0_17_223
*874 FILLER_0_17_225
*875 FILLER_0_17_237
*876 FILLER_0_17_249
*877 FILLER_0_17_261
*878 FILLER_0_17_273
*879 FILLER_0_17_277
*880 FILLER_0_17_281
*881 FILLER_0_17_33
*882 FILLER_0_17_45
*883 FILLER_0_17_54
*884 FILLER_0_17_57
*885 FILLER_0_17_9
*886 FILLER_0_17_92
*887 FILLER_0_17_96
*888 FILLER_0_18_103
*889 FILLER_0_18_138
*890 FILLER_0_18_144
*891 FILLER_0_18_152
*892 FILLER_0_18_160
*893 FILLER_0_18_164
*894 FILLER_0_18_172
*895 FILLER_0_18_184
*896 FILLER_0_18_197
*897 FILLER_0_18_209
*898 FILLER_0_18_21
*899 FILLER_0_18_221
*900 FILLER_0_18_233
*901 FILLER_0_18_245
*902 FILLER_0_18_251
*903 FILLER_0_18_253
*904 FILLER_0_18_265
*905 FILLER_0_18_27
*906 FILLER_0_18_277
*907 FILLER_0_18_29
*908 FILLER_0_18_41
*909 FILLER_0_18_65
*910 FILLER_0_18_9
*911 FILLER_0_18_93
*912 FILLER_0_19_109
*913 FILLER_0_19_113
*914 FILLER_0_19_141
*915 FILLER_0_19_145
*916 FILLER_0_19_149
*917 FILLER_0_19_157
*918 FILLER_0_19_166
*919 FILLER_0_19_169
*920 FILLER_0_19_181
*921 FILLER_0_19_193
*922 FILLER_0_19_205
*923 FILLER_0_19_21
*924 FILLER_0_19_217
*925 FILLER_0_19_223
*926 FILLER_0_19_225
*927 FILLER_0_19_237
*928 FILLER_0_19_249
*929 FILLER_0_19_261
*930 FILLER_0_19_273
*931 FILLER_0_19_279
*932 FILLER_0_19_281
*933 FILLER_0_19_293
*934 FILLER_0_19_33
*935 FILLER_0_19_45
*936 FILLER_0_19_9
*937 FILLER_0_1_111
*938 FILLER_0_1_125
*939 FILLER_0_1_137
*940 FILLER_0_1_149
*941 FILLER_0_1_161
*942 FILLER_0_1_167
*943 FILLER_0_1_169
*944 FILLER_0_1_181
*945 FILLER_0_1_189
*946 FILLER_0_1_273
*947 FILLER_0_1_279
*948 FILLER_0_1_297
*949 FILLER_0_1_3
*950 FILLER_0_1_62
*951 FILLER_0_20_113
*952 FILLER_0_20_141
*953 FILLER_0_20_153
*954 FILLER_0_20_161
*955 FILLER_0_20_167
*956 FILLER_0_20_171
*957 FILLER_0_20_183
*958 FILLER_0_20_195
*959 FILLER_0_20_197
*960 FILLER_0_20_209
*961 FILLER_0_20_21
*962 FILLER_0_20_221
*963 FILLER_0_20_233
*964 FILLER_0_20_245
*965 FILLER_0_20_251
*966 FILLER_0_20_253
*967 FILLER_0_20_265
*968 FILLER_0_20_27
*969 FILLER_0_20_277
*970 FILLER_0_20_29
*971 FILLER_0_20_41
*972 FILLER_0_20_73
*973 FILLER_0_20_9
*974 FILLER_0_21_110
*975 FILLER_0_21_113
*976 FILLER_0_21_117
*977 FILLER_0_21_142
*978 FILLER_0_21_146
*979 FILLER_0_21_149
*980 FILLER_0_21_158
*981 FILLER_0_21_164
*982 FILLER_0_21_169
*983 FILLER_0_21_181
*984 FILLER_0_21_193
*985 FILLER_0_21_205
*986 FILLER_0_21_21
*987 FILLER_0_21_217
*988 FILLER_0_21_223
*989 FILLER_0_21_225
*990 FILLER_0_21_237
*991 FILLER_0_21_249
*992 FILLER_0_21_261
*993 FILLER_0_21_273
*994 FILLER_0_21_277
*995 FILLER_0_21_281
*996 FILLER_0_21_33
*997 FILLER_0_21_45
*998 FILLER_0_21_53
*999 FILLER_0_21_57
*1000 FILLER_0_21_68
*1001 FILLER_0_21_72
*1002 FILLER_0_21_77
*1003 FILLER_0_21_9
*1004 FILLER_0_21_94
*1005 FILLER_0_22_113
*1006 FILLER_0_22_152
*1007 FILLER_0_22_162
*1008 FILLER_0_22_174
*1009 FILLER_0_22_186
*1010 FILLER_0_22_194
*1011 FILLER_0_22_197
*1012 FILLER_0_22_209
*1013 FILLER_0_22_21
*1014 FILLER_0_22_221
*1015 FILLER_0_22_233
*1016 FILLER_0_22_245
*1017 FILLER_0_22_251
*1018 FILLER_0_22_253
*1019 FILLER_0_22_265
*1020 FILLER_0_22_27
*1021 FILLER_0_22_277
*1022 FILLER_0_22_289
*1023 FILLER_0_22_29
*1024 FILLER_0_22_297
*1025 FILLER_0_22_41
*1026 FILLER_0_22_49
*1027 FILLER_0_22_75
*1028 FILLER_0_22_83
*1029 FILLER_0_22_85
*1030 FILLER_0_22_9
*1031 FILLER_0_22_93
*1032 FILLER_0_23_109
*1033 FILLER_0_23_113
*1034 FILLER_0_23_117
*1035 FILLER_0_23_138
*1036 FILLER_0_23_144
*1037 FILLER_0_23_148
*1038 FILLER_0_23_160
*1039 FILLER_0_23_169
*1040 FILLER_0_23_18
*1041 FILLER_0_23_181
*1042 FILLER_0_23_193
*1043 FILLER_0_23_205
*1044 FILLER_0_23_217
*1045 FILLER_0_23_223
*1046 FILLER_0_23_225
*1047 FILLER_0_23_237
*1048 FILLER_0_23_249
*1049 FILLER_0_23_261
*1050 FILLER_0_23_273
*1051 FILLER_0_23_277
*1052 FILLER_0_23_281
*1053 FILLER_0_23_30
*1054 FILLER_0_23_42
*1055 FILLER_0_23_54
*1056 FILLER_0_23_6
*1057 FILLER_0_23_73
*1058 FILLER_0_23_85
*1059 FILLER_0_23_97
*1060 FILLER_0_24_101
*1061 FILLER_0_24_137
*1062 FILLER_0_24_141
*1063 FILLER_0_24_145
*1064 FILLER_0_24_157
*1065 FILLER_0_24_169
*1066 FILLER_0_24_181
*1067 FILLER_0_24_193
*1068 FILLER_0_24_197
*1069 FILLER_0_24_209
*1070 FILLER_0_24_21
*1071 FILLER_0_24_221
*1072 FILLER_0_24_233
*1073 FILLER_0_24_245
*1074 FILLER_0_24_251
*1075 FILLER_0_24_253
*1076 FILLER_0_24_265
*1077 FILLER_0_24_27
*1078 FILLER_0_24_277
*1079 FILLER_0_24_29
*1080 FILLER_0_24_41
*1081 FILLER_0_24_53
*1082 FILLER_0_24_65
*1083 FILLER_0_24_73
*1084 FILLER_0_24_81
*1085 FILLER_0_24_9
*1086 FILLER_0_24_97
*1087 FILLER_0_25_139
*1088 FILLER_0_25_151
*1089 FILLER_0_25_163
*1090 FILLER_0_25_167
*1091 FILLER_0_25_169
*1092 FILLER_0_25_181
*1093 FILLER_0_25_193
*1094 FILLER_0_25_205
*1095 FILLER_0_25_21
*1096 FILLER_0_25_217
*1097 FILLER_0_25_223
*1098 FILLER_0_25_225
*1099 FILLER_0_25_237
*1100 FILLER_0_25_249
*1101 FILLER_0_25_261
*1102 FILLER_0_25_273
*1103 FILLER_0_25_279
*1104 FILLER_0_25_281
*1105 FILLER_0_25_293
*1106 FILLER_0_25_33
*1107 FILLER_0_25_45
*1108 FILLER_0_25_53
*1109 FILLER_0_25_57
*1110 FILLER_0_25_71
*1111 FILLER_0_25_9
*1112 FILLER_0_26_108
*1113 FILLER_0_26_138
*1114 FILLER_0_26_141
*1115 FILLER_0_26_153
*1116 FILLER_0_26_165
*1117 FILLER_0_26_177
*1118 FILLER_0_26_189
*1119 FILLER_0_26_195
*1120 FILLER_0_26_197
*1121 FILLER_0_26_209
*1122 FILLER_0_26_21
*1123 FILLER_0_26_221
*1124 FILLER_0_26_233
*1125 FILLER_0_26_245
*1126 FILLER_0_26_251
*1127 FILLER_0_26_253
*1128 FILLER_0_26_265
*1129 FILLER_0_26_27
*1130 FILLER_0_26_277
*1131 FILLER_0_26_29
*1132 FILLER_0_26_41
*1133 FILLER_0_26_53
*1134 FILLER_0_26_77
*1135 FILLER_0_26_9
*1136 FILLER_0_27_113
*1137 FILLER_0_27_149
*1138 FILLER_0_27_153
*1139 FILLER_0_27_165
*1140 FILLER_0_27_169
*1141 FILLER_0_27_181
*1142 FILLER_0_27_193
*1143 FILLER_0_27_205
*1144 FILLER_0_27_21
*1145 FILLER_0_27_217
*1146 FILLER_0_27_223
*1147 FILLER_0_27_225
*1148 FILLER_0_27_237
*1149 FILLER_0_27_249
*1150 FILLER_0_27_261
*1151 FILLER_0_27_273
*1152 FILLER_0_27_279
*1153 FILLER_0_27_281
*1154 FILLER_0_27_33
*1155 FILLER_0_27_45
*1156 FILLER_0_27_53
*1157 FILLER_0_27_57
*1158 FILLER_0_27_73
*1159 FILLER_0_27_9
*1160 FILLER_0_27_90
*1161 FILLER_0_28_135
*1162 FILLER_0_28_139
*1163 FILLER_0_28_141
*1164 FILLER_0_28_153
*1165 FILLER_0_28_165
*1166 FILLER_0_28_177
*1167 FILLER_0_28_189
*1168 FILLER_0_28_195
*1169 FILLER_0_28_197
*1170 FILLER_0_28_209
*1171 FILLER_0_28_21
*1172 FILLER_0_28_221
*1173 FILLER_0_28_233
*1174 FILLER_0_28_245
*1175 FILLER_0_28_251
*1176 FILLER_0_28_253
*1177 FILLER_0_28_265
*1178 FILLER_0_28_27
*1179 FILLER_0_28_277
*1180 FILLER_0_28_289
*1181 FILLER_0_28_29
*1182 FILLER_0_28_297
*1183 FILLER_0_28_41
*1184 FILLER_0_28_53
*1185 FILLER_0_28_65
*1186 FILLER_0_28_77
*1187 FILLER_0_28_81
*1188 FILLER_0_28_85
*1189 FILLER_0_28_9
*1190 FILLER_0_28_97
*1191 FILLER_0_29_110
*1192 FILLER_0_29_113
*1193 FILLER_0_29_134
*1194 FILLER_0_29_146
*1195 FILLER_0_29_158
*1196 FILLER_0_29_166
*1197 FILLER_0_29_169
*1198 FILLER_0_29_181
*1199 FILLER_0_29_193
*1200 FILLER_0_29_205
*1201 FILLER_0_29_21
*1202 FILLER_0_29_217
*1203 FILLER_0_29_223
*1204 FILLER_0_29_225
*1205 FILLER_0_29_237
*1206 FILLER_0_29_249
*1207 FILLER_0_29_261
*1208 FILLER_0_29_273
*1209 FILLER_0_29_277
*1210 FILLER_0_29_281
*1211 FILLER_0_29_33
*1212 FILLER_0_29_45
*1213 FILLER_0_29_53
*1214 FILLER_0_29_57
*1215 FILLER_0_29_69
*1216 FILLER_0_29_81
*1217 FILLER_0_29_87
*1218 FILLER_0_29_9
*1219 FILLER_0_29_98
*1220 FILLER_0_2_114
*1221 FILLER_0_2_118
*1222 FILLER_0_2_122
*1223 FILLER_0_2_134
*1224 FILLER_0_2_141
*1225 FILLER_0_2_153
*1226 FILLER_0_2_165
*1227 FILLER_0_2_177
*1228 FILLER_0_2_189
*1229 FILLER_0_2_195
*1230 FILLER_0_2_197
*1231 FILLER_0_2_205
*1232 FILLER_0_2_238
*1233 FILLER_0_2_26
*1234 FILLER_0_2_285
*1235 FILLER_0_2_289
*1236 FILLER_0_2_295
*1237 FILLER_0_2_3
*1238 FILLER_0_2_7
*1239 FILLER_0_2_73
*1240 FILLER_0_2_82
*1241 FILLER_0_2_93
*1242 FILLER_0_30_109
*1243 FILLER_0_30_121
*1244 FILLER_0_30_125
*1245 FILLER_0_30_128
*1246 FILLER_0_30_141
*1247 FILLER_0_30_153
*1248 FILLER_0_30_165
*1249 FILLER_0_30_177
*1250 FILLER_0_30_189
*1251 FILLER_0_30_195
*1252 FILLER_0_30_197
*1253 FILLER_0_30_209
*1254 FILLER_0_30_21
*1255 FILLER_0_30_221
*1256 FILLER_0_30_233
*1257 FILLER_0_30_245
*1258 FILLER_0_30_251
*1259 FILLER_0_30_253
*1260 FILLER_0_30_265
*1261 FILLER_0_30_27
*1262 FILLER_0_30_277
*1263 FILLER_0_30_29
*1264 FILLER_0_30_41
*1265 FILLER_0_30_53
*1266 FILLER_0_30_65
*1267 FILLER_0_30_77
*1268 FILLER_0_30_83
*1269 FILLER_0_30_85
*1270 FILLER_0_30_9
*1271 FILLER_0_30_97
*1272 FILLER_0_31_105
*1273 FILLER_0_31_111
*1274 FILLER_0_31_113
*1275 FILLER_0_31_125
*1276 FILLER_0_31_137
*1277 FILLER_0_31_149
*1278 FILLER_0_31_161
*1279 FILLER_0_31_167
*1280 FILLER_0_31_169
*1281 FILLER_0_31_181
*1282 FILLER_0_31_193
*1283 FILLER_0_31_205
*1284 FILLER_0_31_21
*1285 FILLER_0_31_217
*1286 FILLER_0_31_223
*1287 FILLER_0_31_225
*1288 FILLER_0_31_237
*1289 FILLER_0_31_249
*1290 FILLER_0_31_261
*1291 FILLER_0_31_273
*1292 FILLER_0_31_279
*1293 FILLER_0_31_281
*1294 FILLER_0_31_293
*1295 FILLER_0_31_33
*1296 FILLER_0_31_45
*1297 FILLER_0_31_53
*1298 FILLER_0_31_57
*1299 FILLER_0_31_69
*1300 FILLER_0_31_81
*1301 FILLER_0_31_9
*1302 FILLER_0_31_93
*1303 FILLER_0_32_109
*1304 FILLER_0_32_121
*1305 FILLER_0_32_133
*1306 FILLER_0_32_139
*1307 FILLER_0_32_141
*1308 FILLER_0_32_153
*1309 FILLER_0_32_165
*1310 FILLER_0_32_177
*1311 FILLER_0_32_189
*1312 FILLER_0_32_195
*1313 FILLER_0_32_197
*1314 FILLER_0_32_209
*1315 FILLER_0_32_21
*1316 FILLER_0_32_221
*1317 FILLER_0_32_233
*1318 FILLER_0_32_245
*1319 FILLER_0_32_251
*1320 FILLER_0_32_253
*1321 FILLER_0_32_265
*1322 FILLER_0_32_27
*1323 FILLER_0_32_277
*1324 FILLER_0_32_29
*1325 FILLER_0_32_41
*1326 FILLER_0_32_53
*1327 FILLER_0_32_65
*1328 FILLER_0_32_77
*1329 FILLER_0_32_83
*1330 FILLER_0_32_85
*1331 FILLER_0_32_9
*1332 FILLER_0_32_97
*1333 FILLER_0_33_105
*1334 FILLER_0_33_111
*1335 FILLER_0_33_113
*1336 FILLER_0_33_125
*1337 FILLER_0_33_137
*1338 FILLER_0_33_149
*1339 FILLER_0_33_161
*1340 FILLER_0_33_167
*1341 FILLER_0_33_169
*1342 FILLER_0_33_181
*1343 FILLER_0_33_193
*1344 FILLER_0_33_205
*1345 FILLER_0_33_21
*1346 FILLER_0_33_217
*1347 FILLER_0_33_223
*1348 FILLER_0_33_225
*1349 FILLER_0_33_237
*1350 FILLER_0_33_249
*1351 FILLER_0_33_261
*1352 FILLER_0_33_273
*1353 FILLER_0_33_277
*1354 FILLER_0_33_281
*1355 FILLER_0_33_33
*1356 FILLER_0_33_45
*1357 FILLER_0_33_53
*1358 FILLER_0_33_57
*1359 FILLER_0_33_69
*1360 FILLER_0_33_81
*1361 FILLER_0_33_9
*1362 FILLER_0_33_93
*1363 FILLER_0_34_109
*1364 FILLER_0_34_121
*1365 FILLER_0_34_133
*1366 FILLER_0_34_139
*1367 FILLER_0_34_141
*1368 FILLER_0_34_153
*1369 FILLER_0_34_165
*1370 FILLER_0_34_177
*1371 FILLER_0_34_189
*1372 FILLER_0_34_195
*1373 FILLER_0_34_197
*1374 FILLER_0_34_209
*1375 FILLER_0_34_21
*1376 FILLER_0_34_221
*1377 FILLER_0_34_233
*1378 FILLER_0_34_245
*1379 FILLER_0_34_251
*1380 FILLER_0_34_253
*1381 FILLER_0_34_265
*1382 FILLER_0_34_27
*1383 FILLER_0_34_277
*1384 FILLER_0_34_289
*1385 FILLER_0_34_29
*1386 FILLER_0_34_297
*1387 FILLER_0_34_41
*1388 FILLER_0_34_53
*1389 FILLER_0_34_65
*1390 FILLER_0_34_77
*1391 FILLER_0_34_83
*1392 FILLER_0_34_85
*1393 FILLER_0_34_9
*1394 FILLER_0_34_97
*1395 FILLER_0_35_105
*1396 FILLER_0_35_111
*1397 FILLER_0_35_113
*1398 FILLER_0_35_125
*1399 FILLER_0_35_137
*1400 FILLER_0_35_149
*1401 FILLER_0_35_161
*1402 FILLER_0_35_167
*1403 FILLER_0_35_169
*1404 FILLER_0_35_181
*1405 FILLER_0_35_193
*1406 FILLER_0_35_205
*1407 FILLER_0_35_21
*1408 FILLER_0_35_217
*1409 FILLER_0_35_223
*1410 FILLER_0_35_225
*1411 FILLER_0_35_237
*1412 FILLER_0_35_249
*1413 FILLER_0_35_261
*1414 FILLER_0_35_273
*1415 FILLER_0_35_277
*1416 FILLER_0_35_281
*1417 FILLER_0_35_33
*1418 FILLER_0_35_45
*1419 FILLER_0_35_53
*1420 FILLER_0_35_57
*1421 FILLER_0_35_69
*1422 FILLER_0_35_81
*1423 FILLER_0_35_9
*1424 FILLER_0_35_93
*1425 FILLER_0_36_109
*1426 FILLER_0_36_121
*1427 FILLER_0_36_133
*1428 FILLER_0_36_139
*1429 FILLER_0_36_141
*1430 FILLER_0_36_153
*1431 FILLER_0_36_165
*1432 FILLER_0_36_177
*1433 FILLER_0_36_189
*1434 FILLER_0_36_195
*1435 FILLER_0_36_197
*1436 FILLER_0_36_209
*1437 FILLER_0_36_21
*1438 FILLER_0_36_221
*1439 FILLER_0_36_233
*1440 FILLER_0_36_245
*1441 FILLER_0_36_251
*1442 FILLER_0_36_253
*1443 FILLER_0_36_265
*1444 FILLER_0_36_27
*1445 FILLER_0_36_277
*1446 FILLER_0_36_29
*1447 FILLER_0_36_41
*1448 FILLER_0_36_53
*1449 FILLER_0_36_65
*1450 FILLER_0_36_77
*1451 FILLER_0_36_83
*1452 FILLER_0_36_85
*1453 FILLER_0_36_9
*1454 FILLER_0_36_97
*1455 FILLER_0_37_105
*1456 FILLER_0_37_111
*1457 FILLER_0_37_113
*1458 FILLER_0_37_125
*1459 FILLER_0_37_137
*1460 FILLER_0_37_149
*1461 FILLER_0_37_161
*1462 FILLER_0_37_167
*1463 FILLER_0_37_169
*1464 FILLER_0_37_181
*1465 FILLER_0_37_193
*1466 FILLER_0_37_205
*1467 FILLER_0_37_21
*1468 FILLER_0_37_217
*1469 FILLER_0_37_223
*1470 FILLER_0_37_225
*1471 FILLER_0_37_237
*1472 FILLER_0_37_249
*1473 FILLER_0_37_261
*1474 FILLER_0_37_273
*1475 FILLER_0_37_279
*1476 FILLER_0_37_281
*1477 FILLER_0_37_293
*1478 FILLER_0_37_33
*1479 FILLER_0_37_45
*1480 FILLER_0_37_53
*1481 FILLER_0_37_57
*1482 FILLER_0_37_69
*1483 FILLER_0_37_81
*1484 FILLER_0_37_9
*1485 FILLER_0_37_93
*1486 FILLER_0_38_109
*1487 FILLER_0_38_121
*1488 FILLER_0_38_133
*1489 FILLER_0_38_139
*1490 FILLER_0_38_141
*1491 FILLER_0_38_153
*1492 FILLER_0_38_165
*1493 FILLER_0_38_177
*1494 FILLER_0_38_189
*1495 FILLER_0_38_195
*1496 FILLER_0_38_197
*1497 FILLER_0_38_209
*1498 FILLER_0_38_21
*1499 FILLER_0_38_221
*1500 FILLER_0_38_233
*1501 FILLER_0_38_245
*1502 FILLER_0_38_251
*1503 FILLER_0_38_253
*1504 FILLER_0_38_265
*1505 FILLER_0_38_27
*1506 FILLER_0_38_277
*1507 FILLER_0_38_29
*1508 FILLER_0_38_41
*1509 FILLER_0_38_53
*1510 FILLER_0_38_65
*1511 FILLER_0_38_77
*1512 FILLER_0_38_83
*1513 FILLER_0_38_85
*1514 FILLER_0_38_9
*1515 FILLER_0_38_97
*1516 FILLER_0_39_105
*1517 FILLER_0_39_111
*1518 FILLER_0_39_113
*1519 FILLER_0_39_125
*1520 FILLER_0_39_137
*1521 FILLER_0_39_149
*1522 FILLER_0_39_161
*1523 FILLER_0_39_167
*1524 FILLER_0_39_169
*1525 FILLER_0_39_18
*1526 FILLER_0_39_181
*1527 FILLER_0_39_193
*1528 FILLER_0_39_205
*1529 FILLER_0_39_217
*1530 FILLER_0_39_223
*1531 FILLER_0_39_225
*1532 FILLER_0_39_237
*1533 FILLER_0_39_249
*1534 FILLER_0_39_261
*1535 FILLER_0_39_273
*1536 FILLER_0_39_277
*1537 FILLER_0_39_281
*1538 FILLER_0_39_30
*1539 FILLER_0_39_42
*1540 FILLER_0_39_54
*1541 FILLER_0_39_57
*1542 FILLER_0_39_6
*1543 FILLER_0_39_69
*1544 FILLER_0_39_81
*1545 FILLER_0_39_93
*1546 FILLER_0_3_103
*1547 FILLER_0_3_107
*1548 FILLER_0_3_111
*1549 FILLER_0_3_113
*1550 FILLER_0_3_117
*1551 FILLER_0_3_129
*1552 FILLER_0_3_141
*1553 FILLER_0_3_153
*1554 FILLER_0_3_165
*1555 FILLER_0_3_169
*1556 FILLER_0_3_181
*1557 FILLER_0_3_193
*1558 FILLER_0_3_205
*1559 FILLER_0_3_225
*1560 FILLER_0_3_279
*1561 FILLER_0_3_297
*1562 FILLER_0_3_35
*1563 FILLER_0_3_46
*1564 FILLER_0_40_109
*1565 FILLER_0_40_121